*Heading
** Job name: BN-3-vumat-C3D8R-with_fracture Model name: BN-3-vumat
** Generated by: Abaqus/CAE 2021.HF4
*Preprint, echo=NO, model=NO, history=NO, contact=NO
**
** PARTS
**
*Part, name=Part-1
*Node
      1,           0.,   -6.3864274,         6.25
      2,           0.,   -6.3864274,           0.
      3,           0.,         -10.,           0.
      4,           0.,         -10.,         6.25
      5,         6.25,   -6.3864274,           0.
      6,         6.25,         -10.,           0.
      7,           0.,           0.,   3.17000008
      8,           0.,           0.,           0.
      9,   3.17000008,           0.,           0.
     10,           0.,    5.3864274,         6.25
     11,           0.,    6.3864274,         6.25
     12,           0.,    6.3864274,           0.
     13,         6.25,    6.3864274,           0.
     14,         6.25,    5.3864274,           0.
     15,           0.,          10.,           0.
     16,         6.25,          10.,           0.
     17,           0.,          10.,         6.25
     18,           0.,         47.5,           0.
     19,           0.,         47.5,         12.5
     20,           0.,         87.5,         12.5
** ... 28561 like lines cut
*Element, type=C3D8R
  1, 1252, 1253, 9076, 8874,   43,   44, 1038, 1037
  2, 1253, 1254, 9077, 9076,   44,   45, 1039, 1038
  3, 1254,   59, 1089, 9077,   45,    1,   46, 1039
  4, 8874, 9076, 9078, 8875, 1037, 1038, 1041, 1040
  5, 9076, 9077, 9079, 9078, 1038, 1039, 1042, 1041
  6, 9077, 1089, 1090, 9079, 1039,   46,   47, 1042
  7, 8875, 9078, 8894, 8858, 1040, 1041, 1044, 1043
  8, 9078, 9079, 8895, 8894, 1041, 1042, 1045, 1044
  9, 9079, 1090, 1091, 8895, 1042,   47,   48, 1045
 10, 1255, 1256, 9080, 8876, 1252, 1253, 9076, 8874
 11, 1256, 1257, 9081, 9080, 1253, 1254, 9077, 9076
 12, 1257,   60, 1092, 9081, 1254,   59, 1089, 9077
 13, 8876, 9080, 9082, 8877, 8874, 9076, 9078, 8875
 14, 9080, 9081, 9083, 9082, 9076, 9077, 9079, 9078
 15, 9081, 1092, 1093, 9083, 9077, 1089, 1090, 9079
 16, 8877, 9082, 8896, 8857, 8875, 9078, 8894, 8858
 17, 9082, 9083, 8897, 8896, 9078, 9079, 8895, 8894
 18, 9083, 1093, 1094, 8897, 9079, 1090, 1091, 8895
 19, 1258, 1259, 9084, 8878, 1255, 1256, 9080, 8876
 20, 1259, 1260, 9085, 9084, 1256, 1257, 9081, 9080
** ... 24708 like lines cut
*Nset, nset=_PickedSet93, internal, generate
     1,  28581,      1
*Elset, elset=_PickedSet93, internal, generate
     1,  24728,      1
** Section: Q460_explicit
*Solid Section, elset=_PickedSet93, material=Q460_explicit
,
*End Part
**  
**
** ASSEMBLY
**
*Assembly, name=Assembly
**  
*Instance, name=Part-1-1, part=Part-1
*End Instance
**  
*Node
      1,           0.,         67.5,           0.
*Nset, nset=_PickedSet36, internal
 1,
*Nset, nset=_PickedSet41, internal, instance=Part-1-1
    1,    2,    3,    4,    7,    8,   10,   11,   12,   15,   17,   18,   19,   20,   21,   24
   25,   28,   29,   30,   32,   34,   35,   37,   38,   40,   42,   43,   44,   45,   46,   47
   48,   49,   50,   51,   52,   53,   54,   55,   56,   57,   58,   80,   81,   82,   83,   97
   98,   99,  100,  101,  102,  103,  104,  105,  106,  107,  108,  109,  169,  170,  171,  172
  173,  174,  175,  176,  177,  178,  179,  180,  181,  182,  183,  184,  185,  186,  187,  188
  189,  190,  191,  192,  193,  194,  195,  196,  197,  198,  199,  200,  201,  202,  203,  204
  205,  206,  207,  208,  222,  223,  224,  225,  226,  227,  228,  229,  230,  231,  232,  233
  234,  235,  236,  237,  238,  239,  240,  241,  242,  243,  244,  245,  246,  274,  275,  276
  298,  299,  300,  301,  302,  303,  304,  305,  306,  307,  308,  309,  310,  348,  349,  350
  351,  356,  357,  358,  359,  373,  374,  375,  376,  377,  378,  379,  380,  381,  382,  383
  384,  385,  407,  408,  409,  410,  411,  412,  413,  414,  415,  416,  417,  418,  419,  420
  421,  422,  423,  424,  425,  426,  427,  428,  442,  443,  444,  445,  446,  447,  448,  449
  450,  472,  473,  474,  475,  476,  477,  478,  479,  480,  481,  482,  483,  484,  528,  529
  530,  531,  532,  533,  534,  535,  536,  537,  538,  539,  540,  541,  542,  543,  544,  545
  546,  547,  548,  549,  550,  551,  573,  574,  575,  576,  577,  578,  579,  580,  581,  582
  583,  608,  609,  610,  662,  663,  664,  665,  666,  667,  668,  669,  670,  671,  672,  673
  674,  675,  676,  677,  678,  679,  680,  681,  682,  683,  684,  685,  686,  687,  688,  689
  690,  691,  692,  693,  694,  695,  696,  697,  698,  699,  700,  701,  702,  703,  704,  705
  706,  707,  708,  709,  710,  711,  712,  713,  714,  715,  716,  717,  718,  719,  720,  721
  722,  723,  724,  725,  726,  727,  728,  729,  730,  731,  732,  733,  734,  735,  736,  737
** ... 104 like lines cut
*Elset, elset=_PickedSet41, internal, instance=Part-1-1
     1,     2,     3,     4,     5,     6,     7,     8,     9,   100,   101,   102,   103,   104,   105,   106
   107,   108,   109,   110,   111,   112,   113,   114,   115,   116,   117,   118,   119,   120,   121,   122
   123,   124,   125,   126,   127,   128,   129,   130,   131,   132,   463,   464,   465,   466,   467,   468
   469,   470,   471,   472,   473,   474,   475,   476,   477,   478,   479,   480,   481,   482,   483,   484
   705,   706,   707,   708,   709,   710,   946,   957,   968,   979,   990,  1001,  1012,  1023,  1034,  1045
  1056,  1067,  1078,  1089,  1100,  1111,  1122,  1133,  1144,  1155,  1166,  1177,  1188,  1199,  1210,  1221
  1232,  1243,  1254,  1265,  1276,  1287,  1298,  1309,  1320,  1331,  1342,  1353,  1364,  1375,  1386,  1397
  1408,  1419,  1430,  1441,  1452,  1463,  1474,  1485,  1496,  1507,  1518,  1529,  1540,  1551,  1562,  1573
  1584,  1595,  1606,  1617,  1628,  1639,  1650,  1661,  1672,  1683,  1694,  1705,  1716,  1727,  1738,  1749
  1760,  1761,  1762,  1763,  1764,  1765,  1766,  1767,  1768,  1769,  1770,  1771,  1882,  1883,  1884,  1885
  1886,  1887,  1888,  1889,  1890,  1891,  1892,  2003,  2004,  2005,  2006,  2007,  2008,  2009,  2010,  2011
  2012,  2013,  2124,  2125,  2126,  2127,  2128,  2129,  2130,  2131,  2132,  2133,  2134,  2245,  2246,  2247
  2248,  2249,  2250,  2251,  2252,  2253,  2254,  2255,  2366,  2367,  2368,  2369,  2370,  2371,  2372,  2373
  2374,  2375,  2376,  2487,  2488,  2489,  2490,  2491,  2492,  2493,  2494,  2495,  2496,  2497,  2608,  2609
  2610,  2611,  2612,  2613,  2614,  2615,  2616,  2617,  2618,  2729,  2730,  2731,  2732,  2733,  2734,  2735
  2736,  2737,  2738,  2739,  2850,  2851,  2852,  2853,  2854,  2855,  2856,  2857,  2858,  2859,  2860,  2971
  2972,  2973,  2974,  2975,  2976,  2977,  2978,  2979,  2980,  2981,  3092,  3093,  3094,  3095,  3096,  3097
  3098,  3099,  3100,  3101,  3102,  3213,  3214,  3215,  3216,  3217,  3218,  3219,  3220,  3221,  3222,  3223
  3334,  3335,  3336,  3337,  3338,  3339,  3340,  3341,  3342,  3343,  3344,  3455,  3456,  3457,  3458,  3459
  3460,  3461,  3462,  3463,  3464,  3465,  3576,  3577,  3578,  3579,  3580,  3581,  3582,  3583,  3584,  3585
** ... 95 like lines cut
*Nset, nset=_PickedSet42, internal, instance=Part-1-1
    2,    3,    5,    6,    8,    9,   12,   13,   14,   15,   16,   18,   21,   22,   23,   25
   26,   27,   29,   31,   33,   34,   36,   37,   39,   41,   80,   81,   82,   83,   84,   85
   86,   87,   88,   89,   90,   91,   92,   93,   94,   95,   96,  110,  111,  112,  113,  114
  115,  116,  117,  118,  119,  120,  121,  122,  144,  145,  146,  147,  209,  210,  211,  212
  213,  214,  215,  216,  217,  218,  219,  220,  221,  222,  223,  224,  225,  226,  227,  228
  229,  230,  231,  232,  233,  234,  235,  236,  237,  238,  239,  240,  241,  242,  243,  244
  245,  246,  247,  248,  249,  250,  251,  252,  253,  254,  255,  256,  257,  258,  259,  260
  261,  262,  263,  264,  265,  266,  267,  268,  269,  270,  271,  272,  273,  332,  333,  334
  335,  336,  337,  338,  339,  340,  341,  342,  343,  344,  345,  346,  347,  348,  349,  350
  351,  352,  353,  354,  355,  360,  361,  362,  363,  364,  365,  366,  367,  368,  369,  370
  371,  372,  407,  408,  409,  410,  411,  412,  413,  414,  415,  429,  430,  431,  432,  433
  434,  435,  436,  437,  438,  439,  440,  441,  506,  507,  508,  509,  510,  511,  512,  513
  514,  515,  516,  517,  518,  519,  520,  521,  522,  523,  524,  525,  526,  527,  573,  574
  575,  576,  577,  578,  579,  580,  581,  582,  583,  584,  585,  586,  587,  588,  589,  590
  591,  592,  593,  594,  595,  596,  597,  598,  599,  600,  601,  602,  603,  604,  605,  606
  607,  611,  612,  613,  635,  636,  637,  638,  639,  640,  641,  642,  643,  644,  645,  646
  647,  648,  649,  650,  651,  652,  653,  654,  655,  656,  657,  658,  659,  660,  661,  689
  690,  691,  692,  693,  694,  695,  696,  697,  698,  699,  700,  701,  702,  703,  704,  705
  706,  707,  708,  709,  710,  711,  712,  713,  725,  726,  727,  728,  729,  730,  731,  732
  733,  734,  735,  749,  750,  751,  752,  753,  754,  755,  756,  757,  758,  759,  760,  761
** ... 104 like lines cut
*Elset, elset=_PickedSet42, internal, instance=Part-1-1
   110,   121,   132,   143,   154,   165,   176,   187,   198,   209,   220,   231,   242,   253,   264,   275
   286,   297,   308,   319,   330,   341,   352,   363,   374,   385,   396,   407,   418,   429,   440,   451
   462,   463,   464,   485,   486,   507,   508,   529,   530,   551,   552,   573,   574,   595,   596,   617
   618,   639,   640,   661,   662,   683,   684,   781,   792,   803,   814,   825,   836,   847,   858,   869
   880,   891,   902,   913,   924,   935,  1771,  1782,  1793,  1804,  1815,  1826,  1837,  1848,  1859,  1870
  1881,  1892,  1903,  1914,  1925,  1936,  1947,  1958,  1969,  1980,  1991,  2002,  2013,  2024,  2035,  2046
  2057,  2068,  2079,  2090,  2101,  2112,  2123,  2134,  2145,  2156,  2167,  2178,  2189,  2200,  2211,  2222
  2233,  2244,  2255,  2266,  2277,  2288,  2299,  2310,  2321,  2332,  2343,  2354,  2365,  2376,  2387,  2398
  2409,  2420,  2431,  2442,  2453,  2464,  2475,  2486,  2497,  2508,  2519,  2530,  2541,  2552,  2563,  2574
  2585,  2596,  2607,  2618,  2629,  2640,  2651,  2662,  2673,  2684,  2695,  2706,  2717,  2728,  2739,  2750
  2761,  2772,  2783,  2794,  2805,  2816,  2827,  2838,  2849,  2860,  2871,  2882,  2893,  2904,  2915,  2926
  2937,  2948,  2959,  2970,  2981,  2992,  3003,  3014,  3025,  3036,  3047,  3058,  3069,  3080,  3091,  3102
  3113,  3124,  3135,  3146,  3157,  3168,  3179,  3190,  3201,  3212,  3223,  3234,  3245,  3256,  3267,  3278
  3289,  3300,  3311,  3322,  3333,  3344,  3355,  3366,  3377,  3388,  3399,  3410,  3421,  3432,  3443,  3454
  3465,  3476,  3487,  3498,  3509,  3520,  3531,  3542,  3553,  3564,  3575,  3586,  3597,  3608,  3619,  3630
  3641,  3652,  3663,  3674,  3685,  3696,  3707,  3718,  3729,  3740,  3751,  3762,  3773,  3784,  3795,  3806
  3817,  3828,  3839,  3850,  3861,  3872,  3883,  3894,  3905,  3916,  3927,  3938,  3949,  3960,  3971,  3982
  3993,  4004,  4015,  4026,  4037,  4048,  4059,  4070,  4081,  4092,  4103,  4114,  4125,  4136,  4147,  4158
  4169,  4180,  4191,  4202,  4213,  4224,  4235,  4246,  4257,  4268,  4279,  4290,  4301,  4312,  4323,  4334
  4345,  4356,  4367,  4378,  4389,  4400,  4411,  4422,  4433,  4444,  4455,  4466,  4477,  4488,  4499,  4510
** ... 95 like lines cut
*Nset, nset=_PickedSet43, internal, instance=Part-1-1
   35,   36,   38,   39,  881,  882,  883,  884,  885,  886,  887,  888,  889,  890,  891,  892
  893,  894,  895,  896,  897,  898,  899,  900,  901,  902,  903,  904,  905,  906,  907,  908
  909,  910,  946,  947,  948,  949,  950,  951,  952,  953,  954,  955,  956,  957,  958,  959
  960,  961,  962,  963,  964,  965,  966,  967,  968,  969,  970,  971,  972,  973,  974,  975
 7788, 7789, 7790, 7791, 7792, 7793, 7794, 7795, 7796, 7797, 7798, 7799, 7800, 7801, 7802, 7803
 7804, 7805, 7806, 7807, 7808, 7809, 7810, 7811, 7812, 7813, 7814, 7815, 7816, 7817, 7818, 7819
 7820, 7821, 7822, 7823, 7824, 7825, 7826, 7827, 7828, 7829, 7830, 7831, 7832, 7833, 7834, 7835
 7836, 7837, 7838, 7839, 7840, 7841, 7842, 7843, 7844, 7845, 7846, 7847, 7848, 7849, 7850, 7851
 7852, 7853, 7854, 7855, 7856, 7857, 7858, 7859, 7860, 7861, 7862, 7863, 7864, 7865, 7866, 7867
 7868, 7869, 7870, 7871, 7872, 7873, 7874, 7875, 7876, 7877, 7878, 7879, 7880, 7881, 7882, 7883
 7884, 7885, 7886, 7887, 7888, 7889, 7890, 7891, 7892, 7893, 7894, 7895, 7896, 7897, 7898, 7899
 7900, 7901, 7902, 7903, 7904, 7905, 7906, 7907, 7908, 7909, 7910, 7911, 7912, 7913, 7914, 7915
 7916, 7917, 7918, 7919, 7920, 7921, 7922, 7923, 7924, 7925, 7926, 7927, 7928, 7929, 7930, 7931
 7932, 7933, 7934, 7935, 7936, 7937, 7938, 7939, 7940, 7941, 7942, 7943, 7944, 7945, 7946, 7947
 7948, 7949, 7950, 7951, 7952, 7953, 7954, 7955, 7956, 7957, 7958, 7959, 7960, 7961, 7962, 7963
 7964, 7965, 7966, 7967, 7968, 7969, 7970, 7971, 7972, 7973, 7974, 7975, 7976
*Elset, elset=_PickedSet43, internal, instance=Part-1-1
 20604, 20605, 20606, 20607, 20608, 20619, 20620, 20621, 20622, 20623, 20634, 20635, 20636, 20637, 20638, 20649
 20650, 20651, 20652, 20653, 20664, 20665, 20666, 20667, 20668, 20679, 20680, 20681, 20682, 20683, 20694, 20695
 20696, 20697, 20698, 20709, 20710, 20711, 20712, 20713, 20724, 20725, 20726, 20727, 20728, 20739, 20740, 20741
 20742, 20743, 20754, 20755, 20756, 20757, 20758, 21981, 21984, 21987, 21990, 21993, 21996, 21999, 22002, 22005
 22008, 22011, 22014, 22017, 22020, 22023, 22026, 22029, 22032, 22035, 22038, 22041, 22044, 22047, 22050, 22053
 22056, 22059, 22062, 22065, 22068, 22071, 22074, 22077, 22080, 22083, 22086, 22089, 22092, 22095, 22098, 22101
 22104, 22107, 22110, 22113, 22116, 22119, 22122, 22125, 22128, 22131, 22134, 22137, 22140, 22143, 22144, 22145
 22146, 22147, 22148, 22149, 22150, 22151, 22152, 22153, 22154, 22177, 22178, 22179, 22180, 22181, 22182, 22183
 22184, 22185, 22186, 22187, 22210, 22211, 22212, 22213, 22214, 22215, 22216, 22217, 22218, 22219, 22220, 22243
 22244, 22245, 22246, 22247, 22248, 22249, 22250, 22251, 22252, 22253, 22276, 22277, 22278, 22279, 22280, 22281
 22282, 22283, 22284, 22285, 22286, 22309, 22310, 22311, 22312, 22313, 22314, 22315, 22316, 22317, 22318, 22319
 22320, 22321, 22322, 22323, 22324, 22325, 22326, 22327, 22328, 22329, 22330, 22331, 22332, 22333, 22334, 22335
 22336, 22337, 22338, 22339, 22340, 22341, 22342, 22343, 22344, 22345, 22346, 22347, 22348, 22349, 22350, 22351
 22352, 22353, 22354, 22355, 22356, 22357, 22358, 22359, 22360, 22361, 22362, 22363
*Nset, nset=_PickedSet44, internal
 1,
*Elset, elset=__PickedSurf35_S4, internal, instance=Part-1-1
 7538, 7541, 7544, 7547, 7550, 7553, 7556, 7559, 7562, 7565, 7568, 7571, 7574, 7577, 7580, 7583
 7586, 7589, 7592, 7595, 7598, 7601, 7604, 7607, 7610, 7613, 7616, 7619, 7622, 7625, 7628, 7631
 7634, 7637, 7640, 7643, 7646, 7649, 7652, 7655, 7658, 7661, 7664, 7667, 7670, 7673, 7676, 7679
 7682, 7685, 7688, 7691, 7694, 7697, 7700, 8473, 8476, 8479, 8482, 8485, 8488, 8491, 8494, 8497
 8500, 8503, 8506, 8509, 8512, 8515, 8518, 8521, 8524, 8527, 8530, 8533, 8536, 8539, 8542, 8545
 8548, 8551, 8554, 8557, 8560, 8563, 8566, 8569, 8572, 8575, 8578, 8581, 8584, 8587, 8590, 8593
 8596, 8599, 8602, 8605, 8608, 8611, 8614, 8617, 8620, 8623, 8626, 8629, 8632, 8635, 8638, 8641
 8644, 8647, 8650, 8653, 8656, 8659, 8662, 8665, 8668, 8671, 8674, 8677, 8680, 8683, 8686, 8689
 8692, 8695, 8698, 8701, 8704, 8707, 8710, 8713, 8716, 8719, 8722, 8725, 8728, 8731, 8734, 8737
 8740, 8743, 8746, 8749, 8752, 8755, 8758, 8761, 8764, 8767, 8770, 8773, 8776, 8779, 8782, 8785
 8788, 8791, 8794, 8797, 8800
*Elset, elset=__PickedSurf35_S3, internal, instance=Part-1-1
 7701, 7702, 7703, 7704, 7705, 7716, 7717, 7718, 7719, 7720, 7731, 7732, 7733, 7734, 7735, 7746
 7747, 7748, 7749, 7750, 7761, 7762, 7763, 7764, 7765, 7776, 7777, 7778, 7779, 7780, 7791, 7792
 7793, 7794, 7795, 7806, 7807, 7808, 7809, 7810, 7821, 7822, 7823, 7824, 7825, 7836, 7837, 7838
 7839, 7840, 7851, 7852, 7853, 7854, 7855
*Surface, type=ELEMENT, name=_PickedSurf35, internal
__PickedSurf35_S4, S4
__PickedSurf35_S3, S3
** Constraint: Constraint-1
*Coupling, constraint name=Constraint-1, ref node=_PickedSet36, surface=_PickedSurf35
*Kinematic
1, 1
2, 2
3, 3
4, 4
5, 5
6, 6
*End Assembly
*Amplitude, name=Amp-1, definition=SMOOTH STEP
             0.,              0.,              1.,              1.
** 
** MATERIALS
** 
*Material, name=Q460_explicit
*Density
 7.8e-09,
*Depvar, delete=18
     20,
*User Material, constants=73, unsymm
222800.,       0.3,     2.347,    1.3019,    1.0505,    0.3695,        0.,        0.
        2.,      0.03,  0.333333,        0.,        0.,        0.,        0.,        0.
        4.,       0.9,        1.,        1.,      100.,        0.,        0.,        0.
       24.,        0.,  0.013949, 0.0186259, 0.0232449, 0.0293963, 0.0355276, 0.0442887
 0.0537488, 0.0620044, 0.0702041, 0.0776029, 0.0856873, 0.0944335,  0.102388,  0.109929
  0.120251,  0.129766,  0.139885,  0.150253,       0.2,       0.3,      0.43,       0.6
       1.5,   438.923,   445.682,    458.74,   479.748,   501.717,   519.518,    541.91
    560.56,   575.797,   588.169,    598.69,   608.206,   618.248,   626.348,   632.689
   640.875,   648.638,    656.89,   663.756,   696.092,   746.092,   791.592,   834.092
   1014.09,
** 
** BOUNDARY CONDITIONS
** 
** Name: BC-1 Type: Displacement/Rotation
*Boundary
_PickedSet41, 1, 1
_PickedSet41, 6, 6
** Name: BC-2 Type: Displacement/Rotation
*Boundary
_PickedSet42, 3, 3
_PickedSet42, 4, 4
** Name: BC-3 Type: Displacement/Rotation
*Boundary
_PickedSet43, 1, 1
_PickedSet43, 2, 2
_PickedSet43, 3, 3
** ----------------------------------------------------------------
** 
** STEP: Step-1
** 
*Step, name=Step-1, nlgeom=YES
*Dynamic, Explicit
, 1.
*Bulk Viscosity
0.06, 1.2
** Mass Scaling: Semi-Automatic
**               Whole Model
*Variable Mass Scaling, dt=2.5e-06, type=below min, frequency=1
** 
** BOUNDARY CONDITIONS
** 
** Name: BC-4 Type: Displacement/Rotation
*Boundary, amplitude=Amp-1
_PickedSet44, 1, 1
_PickedSet44, 2, 2, 3.
_PickedSet44, 3, 3
** 
** OUTPUT REQUESTS
** 
*Restart, write, number interval=1, time marks=NO
** 
** FIELD OUTPUT: F-Output-1
** 
*Output, field, time interval=0.01
*Node Output
RF, U, V
*Element Output, directions=YES
LE, PE, PEEQ, S, SDV, STATUS
*Contact Output
CSTRESS, 
** 
** HISTORY OUTPUT: H-Output-1
** 
*Output, history, variable=PRESELECT, time interval=0.01
*End Step
