*Heading
** Job name: BN-4-vumat-C3D8R-with_fracture Model name: BN-4-vumat
** Generated by: Abaqus/CAE 2021.HF4
*Preprint, echo=NO, model=NO, history=NO, contact=NO
**
** PARTS
**
*Part, name=Part-1
*Node
      1,           0.,       -4.125,         6.25
      2,           0.,       -4.125,           0.
      3,           0.,  -10.0006762,           0.
      4,           0.,  -10.0006762,         6.25
      5,         6.25,       -4.125,           0.
      6,         6.25,  -10.0006762,           0.
      7,           0., -0.000676073134,   3.19000006
      8,           0., -0.000676073134,           0.
      9,   3.19000006, -0.000676073134,           0.
     10,           0.,   3.12364793,         6.25
     11,           0.,   4.12364769,         6.25
     12,           0.,   4.12364769,           0.
     13,         6.25,   4.12364769,           0.
     14,         6.25,   3.12364793,           0.
     15,           0.,   9.99932384,           0.
     16,         6.25,   9.99932384,           0.
     17,           0.,   9.99932384,         6.25
     18,           0.,         47.5,           0.
     19,           0.,         47.5,         12.5
     20,           0.,         87.5,         12.5
** ... 25579 like lines cut
*Element, type=C3D8R
   1, 1236, 1237, 8422, 8178,   44,   45,  996,  995
   2, 1237, 1238, 8423, 8422,   45,   46,  997,  996
   3, 1238, 1239, 8424, 8423,   46,   47,  998,  997
   4, 1239,   61, 1073, 8424,   47,    1,   48,  998
   5, 8178, 8422, 8425, 8179,  995,  996, 1000,  999
   6, 8422, 8423, 8426, 8425,  996,  997, 1001, 1000
   7, 8423, 8424, 8427, 8426,  997,  998, 1002, 1001
   8, 8424, 1073, 1074, 8427,  998,   48,   49, 1002
   9, 8179, 8425, 8198, 8159,  999, 1000, 1004, 1003
  10, 8425, 8426, 8199, 8198, 1000, 1001, 1005, 1004
  11, 8426, 8427, 8200, 8199, 1001, 1002, 1006, 1005
  12, 8427, 1074, 1075, 8200, 1002,   49,   50, 1006
  13, 1240, 1241, 8428, 8180, 1236, 1237, 8422, 8178
  14, 1241, 1242, 8429, 8428, 1237, 1238, 8423, 8422
  15, 1242, 1243, 8430, 8429, 1238, 1239, 8424, 8423
  16, 1243,   62, 1076, 8430, 1239,   61, 1073, 8424
  17, 8180, 8428, 8431, 8181, 8178, 8422, 8425, 8179
  18, 8428, 8429, 8432, 8431, 8422, 8423, 8426, 8425
  19, 8429, 8430, 8433, 8432, 8423, 8424, 8427, 8426
  20, 8430, 1076, 1077, 8433, 8424, 1073, 1074, 8427
** ... 22090 like lines cut
*Nset, nset=_PickedSet93, internal, generate
     1,  25599,      1
*Elset, elset=_PickedSet93, internal, generate
     1,  22110,      1
** Section: Q460_explicit
*Solid Section, elset=_PickedSet93, material=Q460_explicit
,
*End Part
**  
**
** ASSEMBLY
**
*Assembly, name=Assembly
**  
*Instance, name=Part-1-1, part=Part-1
*End Instance
**  
*Node
      1,           0.,         67.5,           0.
*Nset, nset=_PickedSet36, internal
 1,
*Nset, nset=_PickedSet37, internal
 1,
*Nset, nset=_PickedSet40, internal, instance=Part-1-1
   35,   36,   38,   39,  839,  840,  841,  842,  843,  844,  845,  846,  847,  848,  849,  850
  851,  852,  853,  854,  855,  856,  857,  858,  859,  860,  861,  862,  863,  864,  865,  866
  867,  868,  904,  905,  906,  907,  908,  909,  910,  911,  912,  913,  914,  915,  916,  917
  918,  919,  920,  921,  922,  923,  924,  925,  926,  927,  928,  929,  930,  931,  932,  933
 7088, 7089, 7090, 7091, 7092, 7093, 7094, 7095, 7096, 7097, 7098, 7099, 7100, 7101, 7102, 7103
 7104, 7105, 7106, 7107, 7108, 7109, 7110, 7111, 7112, 7113, 7114, 7115, 7116, 7117, 7118, 7119
 7120, 7121, 7122, 7123, 7124, 7125, 7126, 7127, 7128, 7129, 7130, 7131, 7132, 7133, 7134, 7135
 7136, 7137, 7138, 7139, 7140, 7141, 7142, 7143, 7144, 7145, 7146, 7147, 7148, 7149, 7150, 7151
 7152, 7153, 7154, 7155, 7156, 7157, 7158, 7159, 7160, 7161, 7162, 7163, 7164, 7165, 7166, 7167
 7168, 7169, 7170, 7171, 7172, 7173, 7174, 7175, 7176, 7177, 7178, 7179, 7180, 7181, 7182, 7183
 7184, 7185, 7186, 7187, 7188, 7189, 7190, 7191, 7192, 7193, 7194, 7195, 7196, 7197, 7198, 7199
 7200, 7201, 7202, 7203, 7204, 7205, 7206, 7207, 7208, 7209, 7210, 7211, 7212, 7213, 7214, 7215
 7216, 7217, 7218, 7219, 7220, 7221, 7222, 7223, 7224, 7225, 7226, 7227, 7228, 7229, 7230, 7231
 7232, 7233, 7234, 7235, 7236, 7237, 7238, 7239, 7240, 7241, 7242, 7243, 7244, 7245, 7246, 7247
 7248, 7249, 7250, 7251, 7252, 7253, 7254, 7255, 7256, 7257, 7258, 7259, 7260, 7261, 7262, 7263
 7264, 7265, 7266, 7267, 7268, 7269, 7270, 7271, 7272, 7273, 7274, 7275, 7276
*Elset, elset=_PickedSet40, internal, instance=Part-1-1
 17986, 17987, 17988, 17989, 17990, 18001, 18002, 18003, 18004, 18005, 18016, 18017, 18018, 18019, 18020, 18031
 18032, 18033, 18034, 18035, 18046, 18047, 18048, 18049, 18050, 18061, 18062, 18063, 18064, 18065, 18076, 18077
 18078, 18079, 18080, 18091, 18092, 18093, 18094, 18095, 18106, 18107, 18108, 18109, 18110, 18121, 18122, 18123
 18124, 18125, 18136, 18137, 18138, 18139, 18140, 19363, 19366, 19369, 19372, 19375, 19378, 19381, 19384, 19387
 19390, 19393, 19396, 19399, 19402, 19405, 19408, 19411, 19414, 19417, 19420, 19423, 19426, 19429, 19432, 19435
 19438, 19441, 19444, 19447, 19450, 19453, 19456, 19459, 19462, 19465, 19468, 19471, 19474, 19477, 19480, 19483
 19486, 19489, 19492, 19495, 19498, 19501, 19504, 19507, 19510, 19513, 19516, 19519, 19522, 19525, 19526, 19527
 19528, 19529, 19530, 19531, 19532, 19533, 19534, 19535, 19536, 19559, 19560, 19561, 19562, 19563, 19564, 19565
 19566, 19567, 19568, 19569, 19592, 19593, 19594, 19595, 19596, 19597, 19598, 19599, 19600, 19601, 19602, 19625
 19626, 19627, 19628, 19629, 19630, 19631, 19632, 19633, 19634, 19635, 19658, 19659, 19660, 19661, 19662, 19663
 19664, 19665, 19666, 19667, 19668, 19691, 19692, 19693, 19694, 19695, 19696, 19697, 19698, 19699, 19700, 19701
 19702, 19703, 19704, 19705, 19706, 19707, 19708, 19709, 19710, 19711, 19712, 19713, 19714, 19715, 19716, 19717
 19718, 19719, 19720, 19721, 19722, 19723, 19724, 19725, 19726, 19727, 19728, 19729, 19730, 19731, 19732, 19733
 19734, 19735, 19736, 19737, 19738, 19739, 19740, 19741, 19742, 19743, 19744, 19745
*Nset, nset=_PickedSet41, internal, instance=Part-1-1
    1,    2,    3,    4,    7,    8,   10,   11,   12,   15,   17,   18,   19,   20,   21,   24
   25,   28,   29,   30,   32,   34,   35,   37,   38,   40,   42,   43,   44,   45,   46,   47
   48,   49,   50,   51,   52,   53,   54,   55,   56,   57,   58,   59,   60,   82,   83,   84
   85,   86,   87,  101,  102,  103,  104,  105,  106,  107,  108,  109,  110,  111,  112,  113
  175,  176,  177,  178,  179,  180,  181,  182,  183,  184,  185,  186,  187,  188,  189,  190
  191,  192,  193,  194,  195,  196,  197,  198,  199,  200,  201,  202,  203,  204,  205,  219
  220,  221,  222,  223,  224,  225,  226,  227,  228,  229,  230,  231,  232,  233,  234,  253
  254,  255,  277,  278,  279,  280,  281,  282,  283,  284,  285,  286,  287,  288,  289,  327
  328,  329,  330,  331,  332,  339,  340,  341,  342,  343,  344,  358,  359,  360,  361,  362
  363,  364,  365,  366,  367,  368,  369,  370,  392,  393,  394,  395,  396,  397,  398,  399
  400,  401,  402,  403,  404,  405,  406,  407,  408,  409,  410,  411,  412,  413,  427,  428
  429,  430,  431,  432,  433,  434,  435,  457,  458,  459,  460,  461,  462,  463,  464,  465
  466,  467,  468,  469,  513,  514,  515,  516,  517,  518,  519,  520,  521,  522,  523,  524
  525,  526,  527,  528,  529,  530,  531,  532,  533,  534,  535,  536,  558,  559,  560,  561
  562,  563,  564,  565,  566,  567,  568,  593,  594,  595,  638,  639,  640,  641,  642,  643
  644,  645,  646,  647,  648,  649,  650,  651,  652,  653,  654,  655,  656,  657,  658,  659
  660,  661,  662,  663,  664,  665,  666,  667,  668,  669,  670,  671,  672,  673,  674,  675
  676,  677,  678,  679,  680,  681,  682,  683,  684,  685,  686,  687,  688,  689,  690,  691
  692,  693,  694,  695,  696,  697,  698,  699,  700,  701,  702,  703,  704,  705,  706,  752
  753,  754,  755,  756,  757,  758,  759,  760,  761,  762,  784,  785,  786,  787,  803,  804
** ... 91 like lines cut
*Elset, elset=_PickedSet41, internal, instance=Part-1-1
     1,     2,     3,     4,     5,     6,     7,     8,     9,    10,    11,    12,   133,   134,   135,   136
   137,   138,   139,   140,   141,   142,   143,   144,   145,   146,   147,   148,   149,   150,   151,   152
   153,   154,   155,   156,   157,   158,   159,   160,   161,   162,   163,   164,   165,   166,   167,   168
   169,   170,   171,   172,   173,   174,   175,   176,   617,   618,   619,   620,   621,   622,   623,   624
   625,   626,   627,   628,   629,   630,   631,   632,   633,   634,   635,   636,   637,   638,   639,   640
   641,   642,   643,   644,   645,   646,   647,   648,   649,   980,   981,   982,   983,   984,   985,   986
   987,   988,  1320,  1331,  1342,  1353,  1364,  1375,  1386,  1397,  1408,  1419,  1430,  1441,  1452,  1463
  1474,  1485,  1496,  1507,  1518,  1529,  1540,  1551,  1562,  1573,  1584,  1595,  1606,  1617,  1628,  1639
  1650,  1661,  1672,  1683,  1694,  1705,  1716,  1727,  1738,  1749,  1760,  1771,  1782,  1793,  1804,  1815
  1826,  1837,  1838,  1839,  1840,  1841,  1842,  1843,  1844,  1845,  1846,  1847,  1848,  1959,  1960,  1961
  1962,  1963,  1964,  1965,  1966,  1967,  1968,  1969,  2080,  2081,  2082,  2083,  2084,  2085,  2086,  2087
  2088,  2089,  2090,  2201,  2202,  2203,  2204,  2205,  2206,  2207,  2208,  2209,  2210,  2211,  2322,  2323
  2324,  2325,  2326,  2327,  2328,  2329,  2330,  2331,  2332,  2443,  2444,  2445,  2446,  2447,  2448,  2449
  2450,  2451,  2452,  2453,  2564,  2565,  2566,  2567,  2568,  2569,  2570,  2571,  2572,  2573,  2574,  2685
  2686,  2687,  2688,  2689,  2690,  2691,  2692,  2693,  2694,  2695,  2806,  2807,  2808,  2809,  2810,  2811
  2812,  2813,  2814,  2815,  2816,  2927,  2928,  2929,  2930,  2931,  2932,  2933,  2934,  2935,  2936,  2937
  3048,  3049,  3050,  3051,  3052,  3053,  3054,  3055,  3056,  3057,  3058,  3169,  3170,  3171,  3172,  3173
  3174,  3175,  3176,  3177,  3178,  3179,  3290,  3291,  3292,  3293,  3294,  3295,  3296,  3297,  3298,  3299
  3300,  3411,  3412,  3413,  3414,  3415,  3416,  3417,  3418,  3419,  3420,  3421,  3532,  3533,  3534,  3535
  3536,  3537,  3538,  3539,  3540,  3541,  3542,  3653,  3654,  3655,  3656,  3657,  3658,  3659,  3660,  3661
** ... 82 like lines cut
*Nset, nset=_PickedSet42, internal, instance=Part-1-1
    2,    3,    5,    6,    8,    9,   12,   13,   14,   15,   16,   18,   21,   22,   23,   25
   26,   27,   29,   31,   33,   34,   36,   37,   39,   41,   82,   83,   84,   85,   86,   87
   88,   89,   90,   91,   92,   93,   94,   95,   96,   97,   98,   99,  100,  114,  115,  116
  117,  118,  119,  120,  121,  122,  123,  124,  125,  126,  148,  149,  150,  151,  152,  153
  206,  207,  208,  209,  210,  211,  212,  213,  214,  215,  216,  217,  218,  219,  220,  221
  222,  223,  224,  225,  226,  227,  228,  229,  230,  231,  232,  233,  234,  235,  236,  237
  238,  239,  240,  241,  242,  243,  244,  245,  246,  247,  248,  249,  250,  251,  252,  311
  312,  313,  314,  315,  316,  317,  318,  319,  320,  321,  322,  323,  324,  325,  326,  327
  328,  329,  330,  331,  332,  333,  334,  335,  336,  337,  338,  345,  346,  347,  348,  349
  350,  351,  352,  353,  354,  355,  356,  357,  392,  393,  394,  395,  396,  397,  398,  399
  400,  414,  415,  416,  417,  418,  419,  420,  421,  422,  423,  424,  425,  426,  491,  492
  493,  494,  495,  496,  497,  498,  499,  500,  501,  502,  503,  504,  505,  506,  507,  508
  509,  510,  511,  512,  558,  559,  560,  561,  562,  563,  564,  565,  566,  567,  568,  569
  570,  571,  572,  573,  574,  575,  576,  577,  578,  579,  580,  581,  582,  583,  584,  585
  586,  587,  588,  589,  590,  591,  592,  596,  597,  598,  620,  621,  622,  623,  624,  625
  626,  627,  628,  629,  630,  631,  632,  633,  634,  635,  636,  637,  656,  657,  658,  659
  660,  661,  662,  663,  664,  665,  666,  667,  668,  669,  670,  671,  683,  684,  685,  686
  687,  688,  689,  690,  691,  692,  693,  707,  708,  709,  710,  711,  712,  713,  714,  715
  716,  717,  718,  719,  741,  742,  743,  744,  745,  746,  747,  748,  749,  750,  751,  788
  789,  790,  791,  792,  793,  794,  795,  796,  797,  798,  799,  800,  801,  802,  803,  804
** ... 91 like lines cut
*Elset, elset=_PickedSet42, internal, instance=Part-1-1
   143,   154,   165,   176,   187,   198,   209,   220,   231,   242,   253,   264,   275,   286,   297,   308
   319,   330,   341,   352,   363,   374,   385,   396,   407,   418,   429,   440,   451,   462,   473,   484
   495,   506,   517,   528,   539,   550,   561,   572,   583,   594,   605,   616,   617,   618,   619,   650
   651,   652,   683,   684,   685,   716,   717,   718,   749,   750,   751,   782,   783,   784,   815,   816
   817,   848,   849,   850,   881,   882,   883,   914,   915,   916,   947,   948,   949,  1089,  1100,  1111
  1122,  1133,  1144,  1155,  1166,  1177,  1188,  1199,  1210,  1221,  1232,  1243,  1254,  1265,  1276,  1287
  1298,  1309,  1848,  1859,  1870,  1881,  1892,  1903,  1914,  1925,  1936,  1947,  1958,  1969,  1980,  1991
  2002,  2013,  2024,  2035,  2046,  2057,  2068,  2079,  2090,  2101,  2112,  2123,  2134,  2145,  2156,  2167
  2178,  2189,  2200,  2211,  2222,  2233,  2244,  2255,  2266,  2277,  2288,  2299,  2310,  2321,  2332,  2343
  2354,  2365,  2376,  2387,  2398,  2409,  2420,  2431,  2442,  2453,  2464,  2475,  2486,  2497,  2508,  2519
  2530,  2541,  2552,  2563,  2574,  2585,  2596,  2607,  2618,  2629,  2640,  2651,  2662,  2673,  2684,  2695
  2706,  2717,  2728,  2739,  2750,  2761,  2772,  2783,  2794,  2805,  2816,  2827,  2838,  2849,  2860,  2871
  2882,  2893,  2904,  2915,  2926,  2937,  2948,  2959,  2970,  2981,  2992,  3003,  3014,  3025,  3036,  3047
  3058,  3069,  3080,  3091,  3102,  3113,  3124,  3135,  3146,  3157,  3168,  3179,  3190,  3201,  3212,  3223
  3234,  3245,  3256,  3267,  3278,  3289,  3300,  3311,  3322,  3333,  3344,  3355,  3366,  3377,  3388,  3399
  3410,  3421,  3432,  3443,  3454,  3465,  3476,  3487,  3498,  3509,  3520,  3531,  3542,  3553,  3564,  3575
  3586,  3597,  3608,  3619,  3630,  3641,  3652,  3663,  3674,  3685,  3696,  3707,  3718,  3729,  3740,  3751
  3762,  3773,  3774,  3775,  3776,  3807,  3808,  3809,  3840,  3841,  3842,  3873,  3874,  3875,  3906,  3907
  3908,  3939,  3940,  3941,  3972,  3973,  3974,  4005,  4006,  4007,  4038,  4039,  4040,  4071,  4072,  4073
  4104,  4105,  4106,  4137,  4138,  4139,  4170,  4171,  4172,  4203,  4204,  4205,  4236,  4237,  4238,  4269
** ... 82 like lines cut
*Elset, elset=__PickedSurf35_S4, internal, instance=Part-1-1
 6603, 6606, 6609, 6612, 6615, 6618, 6621, 6624, 6627, 6630, 6633, 6636, 6639, 6642, 6645, 6648
 6651, 6654, 6657, 6660, 6663, 6666, 6669, 6672, 6675, 6678, 6681, 6684, 6687, 6690, 6693, 6696
 6699, 6702, 6705, 6708, 6711, 6714, 6717, 6720, 6723, 6726, 6729, 6732, 6735, 6738, 6741, 6744
 6747, 6750, 6753, 6756, 6759, 6762, 6765, 7538, 7541, 7544, 7547, 7550, 7553, 7556, 7559, 7562
 7565, 7568, 7571, 7574, 7577, 7580, 7583, 7586, 7589, 7592, 7595, 7598, 7601, 7604, 7607, 7610
 7613, 7616, 7619, 7622, 7625, 7628, 7631, 7634, 7637, 7640, 7643, 7646, 7649, 7652, 7655, 7658
 7661, 7664, 7667, 7670, 7673, 7676, 7679, 7682, 7685, 7688, 7691, 7694, 7697, 7700, 7703, 7706
 7709, 7712, 7715, 7718, 7721, 7724, 7727, 7730, 7733, 7736, 7739, 7742, 7745, 7748, 7751, 7754
 7757, 7760, 7763, 7766, 7769, 7772, 7775, 7778, 7781, 7784, 7787, 7790, 7793, 7796, 7799, 7802
 7805, 7808, 7811, 7814, 7817, 7820, 7823, 7826, 7829, 7832, 7835, 7838, 7841, 7844, 7847, 7850
 7853, 7856, 7859, 7862, 7865
*Elset, elset=__PickedSurf35_S3, internal, instance=Part-1-1
 6766, 6767, 6768, 6769, 6770, 6781, 6782, 6783, 6784, 6785, 6796, 6797, 6798, 6799, 6800, 6811
 6812, 6813, 6814, 6815, 6826, 6827, 6828, 6829, 6830, 6841, 6842, 6843, 6844, 6845, 6856, 6857
 6858, 6859, 6860, 6871, 6872, 6873, 6874, 6875, 6886, 6887, 6888, 6889, 6890, 6901, 6902, 6903
 6904, 6905, 6916, 6917, 6918, 6919, 6920
*Surface, type=ELEMENT, name=_PickedSurf35, internal
__PickedSurf35_S4, S4
__PickedSurf35_S3, S3
** Constraint: Constraint-1
*Coupling, constraint name=Constraint-1, ref node=_PickedSet36, surface=_PickedSurf35
*Kinematic
1, 1
2, 2
3, 3
4, 4
5, 5
6, 6
*End Assembly
*Amplitude, name=Amp-1, definition=SMOOTH STEP
             0.,              0.,              1.,              1.
** 
** MATERIALS
** 
*Material, name=Q460_explicit
*Density
 7.8e-09,
*Depvar, delete=18
     20,
*User Material, constants=73, unsymm
222800.,       0.3,     2.347,    1.3019,    1.0505,    0.3695,        0.,        0.
        2.,      0.03,  0.333333,        0.,        0.,        0.,        0.,        0.
        4.,       0.9,        1.,        1.,      100.,        0.,        0.,        0.
       24.,        0.,  0.013949, 0.0186259, 0.0232449, 0.0293963, 0.0355276, 0.0442887
 0.0537488, 0.0620044, 0.0702041, 0.0776029, 0.0856873, 0.0944335,  0.102388,  0.109929
  0.120251,  0.129766,  0.139885,  0.150253,       0.2,       0.3,      0.43,       0.6
       1.5,   438.923,   445.682,    458.74,   479.748,   501.717,   519.518,    541.91
    560.56,   575.797,   588.169,    598.69,   608.206,   618.248,   626.348,   632.689
   640.875,   648.638,    656.89,   663.756,   696.092,   746.092,   791.592,   834.092
   1014.09,
** 
** BOUNDARY CONDITIONS
** 
** Name: BC-1 Type: Displacement/Rotation
*Boundary
_PickedSet41, 1, 1
_PickedSet41, 6, 6
** Name: BC-2 Type: Displacement/Rotation
*Boundary
_PickedSet42, 3, 3
_PickedSet42, 4, 4
** Name: BC-3 Type: Displacement/Rotation
*Boundary
_PickedSet40, 1, 1
_PickedSet40, 2, 2
_PickedSet40, 3, 3
** ----------------------------------------------------------------
** 
** STEP: Step-1
** 
*Step, name=Step-1, nlgeom=YES
*Dynamic, Explicit
, 1.
*Bulk Viscosity
0.06, 1.2
** Mass Scaling: Semi-Automatic
**               Whole Model
*Variable Mass Scaling, dt=2.5e-06, type=below min, frequency=1
** 
** BOUNDARY CONDITIONS
** 
** Name: BC-4 Type: Displacement/Rotation
*Boundary, amplitude=Amp-1
_PickedSet37, 1, 1
_PickedSet37, 2, 2, 2.2
_PickedSet37, 3, 3
** 
** OUTPUT REQUESTS
** 
*Restart, write, number interval=1, time marks=NO
** 
** FIELD OUTPUT: F-Output-1
** 
*Output, field, time interval=0.01
*Node Output
RF, U, V
*Element Output, directions=YES
LE, PE, PEEQ, S, SDV, STATUS
*Contact Output
CSTRESS, 
** 
** HISTORY OUTPUT: H-Output-1
** 
*Output, history, variable=PRESELECT, time interval=0.01
*End Step
