*Heading
** Job name: BN-7-vumat-C3D8R-with_fracture Model name: BN-7-vumat
** Generated by: Abaqus/CAE 2021.HF4
*Preprint, echo=NO, model=NO, history=NO, contact=NO
**
** PARTS
**
*Part, name=Part-1
*Node
      1,   4.80000019,          3.5,           0.
      2,           0.,          3.5,   4.80000019
      3,           0.,          3.5,           0.
      4,           0.,          10.,   4.80000019
      5,   4.80000019,          10.,           0.
      6,           0.,          10.,           0.
      7,   4.80000019,          1.5,           0.
      8,           0.,          1.5,   4.80000019
      9,           0.,           0.,           0.
     10,           0.,           0.,   3.29999995
     11,   3.29999995,           0.,           0.
     12,           0.,          3.5,         6.25
     13,           0.,          10.,         6.25
     14,         6.25,          10.,           0.
     15,         6.25,          3.5,           0.
     16,           0.,         -3.5,   4.80000019
     17,   4.80000019,         -3.5,           0.
     18,   4.80000019,         -1.5,           0.
     19,           0.,         -1.5,   4.80000019
     20,           0.,         -3.5,           0.
** ... 25309 like lines cut
*Element, type=C3D8R
  1, 1527,   98, 1408, 9265,   74,    1,   75, 1327
  2, 9265, 1408, 1409, 9266, 1327,   75,   76, 1328
  3, 9266, 1409, 1410, 9267, 1328,   76,   77, 1329
  4, 9267, 1410, 1411, 9268, 1329,   77,   78, 1330
  5, 9268, 1411, 1412, 9269, 1330,   78,   79, 1331
  6, 9269, 1412, 1413, 9270, 1331,   79,   80, 1332
  7, 9270, 1413, 1414, 9271, 1332,   80,   81, 1333
  8, 9271, 1414, 1415, 9272, 1333,   81,   82, 1334
  9, 9272, 1415, 1416, 9253, 1334,   82,   83, 1335
 10, 1528,   97, 1417, 9273, 1527,   98, 1408, 9265
 11, 9273, 1417, 1418, 9274, 9265, 1408, 1409, 9266
 12, 9274, 1418, 1419, 9275, 9266, 1409, 1410, 9267
 13, 9275, 1419, 1420, 9276, 9267, 1410, 1411, 9268
 14, 9276, 1420, 1421, 9277, 9268, 1411, 1412, 9269
 15, 9277, 1421, 1422, 9278, 9269, 1412, 1413, 9270
 16, 9278, 1422, 1423, 9279, 9270, 1413, 1414, 9271
 17, 9279, 1423, 1424, 9280, 9271, 1414, 1415, 9272
 18, 9280, 1424, 1425, 9252, 9272, 1415, 1416, 9253
 19, 1529,   96, 1426, 9281, 1528,   97, 1417, 9273
 20, 9281, 1426, 1427, 9282, 9273, 1417, 1418, 9274
** ... 21994 like lines cut
*Nset, nset=_PickedSet122, internal, generate
     1,  25329,      1
*Elset, elset=_PickedSet122, internal, generate
     1,  22014,      1
** Section: Q460_explicit
*Solid Section, elset=_PickedSet122, material=Q460_explicit
,
*End Part
**  
**
** ASSEMBLY
**
*Assembly, name=Assembly
**  
*Instance, name=Part-1-1, part=Part-1
*End Instance
**  
*Node
      1,           0.,         67.5,           0.
*Nset, nset=_PickedSet44, internal
 1,
*Nset, nset=_PickedSet45, internal, instance=Part-1-1
    2,    3,    4,    6,    8,    9,   10,   12,   13,   16,   19,   20,   22,   23,   26,   27
   28,   30,   31,   33,   34,   36,   38,   39,   41,   43,   46,   48,   49,   50,   53,   54
   55,   60,   62,   63,   64,   65,   99,  100,  101,  102,  103,  104,  105,  106,  107,  108
  109,  110,  111,  112,  113,  114,  115,  116,  117,  118,  119,  120,  121,  139,  140,  141
  142,  143,  144,  145,  146,  147,  157,  158,  159,  160,  161,  197,  198,  199,  200,  201
  202,  203,  204,  205,  206,  207,  208,  209,  210,  211,  212,  213,  214,  215,  216,  217
  218,  219,  220,  221,  222,  223,  224,  225,  226,  227,  228,  229,  230,  231,  232,  233
  234,  235,  283,  284,  285,  286,  287,  288,  289,  324,  325,  326,  327,  328,  329,  330
  331,  332,  333,  334,  335,  336,  337,  338,  356,  357,  358,  359,  360,  361,  362,  363
  364,  409,  410,  411,  412,  413,  414,  415,  416,  417,  418,  419,  420,  421,  422,  423
  424,  425,  426,  427,  428,  429,  430,  431,  432,  433,  434,  468,  469,  470,  471,  472
  473,  474,  475,  476,  477,  478,  479,  480,  481,  482,  483,  484,  485,  486,  487,  488
  489,  490,  508,  509,  510,  511,  512,  513,  514,  515,  516,  517,  518,  519,  520,  521
  522,  523,  524,  559,  560,  561,  562,  563,  564,  565,  566,  567,  585,  586,  587,  588
  589,  590,  591,  592,  593,  612,  613,  614,  615,  616,  617,  618,  619,  620,  638,  639
  640,  641,  642,  643,  644,  645,  646,  656,  657,  658,  659,  660,  661,  662,  663,  664
  682,  683,  684,  685,  686,  687,  703,  704,  705,  706,  707,  708,  709,  710,  711,  712
  713,  714,  715,  716,  717,  718,  719,  731,  732,  733,  734,  735,  736,  737,  738,  739
  740,  741,  759,  760,  761,  762,  763,  764,  765,  766,  767,  804,  805,  806,  807,  808
  809,  810,  811,  812,  813,  819,  820,  821,  822,  823,  841,  842,  843,  844,  845,  846
** ... 94 like lines cut
*Elset, elset=_PickedSet45, internal, instance=Part-1-1
    45,    54,    63,    72,    73,    74,    75,    76,    77,    78,    79,    80,    81,   154,   155,   156
   157,   158,   159,   160,   161,   162,   235,   236,   237,   238,   239,   240,   241,   242,   243,   316
   317,   318,   319,   320,   321,   322,   323,   324,   405,   414,   423,   432,   469,   470,   471,   472
   473,   474,   475,   476,   477,   478,   479,   480,   481,   482,   483,   484,   485,   486,   487,   488
   489,   490,   491,   492,   493,   494,   495,   496,   497,   498,   499,   500,   501,   502,   503,   504
   801,   856,   857,   858,   859,   860,   909,   918,   927,   936,   945,   954,   963,   972,   981,   982
   983,   984,   985,   986,   987,   988,   989,   990,   991,   992,   993,   994,   995,   996,   997,   998
   999,  1000,  1001,  1002,  1003,  1004,  1005,  1006,  1007,  1008,  1009,  1010,  1011,  1012,  1013,  1014
  1015,  1016,  1017,  1018,  1019,  1020,  1021,  1022,  1023,  1024,  1025,  1026,  1027,  1028,  1029,  1030
  1031,  1032,  1033,  1034,  1035,  1036,  1037,  1038,  1039,  1040,  1041,  1042,  1043,  1044,  1045,  1046
  1047,  1048,  1049,  1050,  1051,  1052,  1053,  1054,  1055,  1056,  1057,  1058,  1059,  1060,  1061,  1062
  1063,  1064,  1065,  1066,  1067,  1068,  1069,  1070,  1071,  1072,  1073,  1074,  1075,  1076,  1077,  1078
  1079,  1080,  1081,  1082,  1083,  1084,  1085,  1086,  1087,  1088,  1089,  1090,  1091,  1092,  1093,  1094
  1095,  1096,  1097,  1098,  2035,  2036,  2037,  2038,  2039,  2040,  2041,  2042,  2043,  2044,  2045,  2046
  2047,  2048,  2049,  2050,  2051,  2052,  2053,  2054,  2055,  2056,  2057,  2058,  2059,  2060,  2061,  2062
  2063,  2064,  2065,  2066,  2067,  2068,  2069,  2070,  2071,  2072,  2073,  2074,  2075,  2076,  2077,  2078
  2079,  2080,  2081,  2082,  2083,  2084,  2085,  2086,  2087,  2088,  2089,  2090,  2091,  2092,  2093,  2094
  2095,  2096,  2097,  2098,  2099,  3222,  3240,  3258,  3276,  3294,  3312,  3330,  3348,  3366,  3384,  3402
  3420,  3438,  3456,  3474,  3492,  3510,  3528,  3546,  3564,  3582,  3600,  3618,  3636,  3654,  3672,  3690
  3708,  3726,  3744,  3762,  3780,  3798,  3816,  3834,  3852,  3870,  3888,  3906,  3924,  3942,  3960,  3978
** ... 86 like lines cut
*Nset, nset=_PickedSet46, internal, instance=Part-1-1
    1,    3,    5,    6,    7,    9,   11,   14,   15,   17,   18,   20,   21,   23,   24,   25
   29,   30,   32,   33,   35,   36,   37,   40,   42,   44,   45,   47,   51,   52,   56,   57
   58,   59,   61,   63,   64,   65,   66,   67,   68,   69,   70,   71,   72,   73,   74,   92
   93,   94,   95,   96,   97,   98,  115,  116,  117,  118,  119,  120,  121,  148,  149,  150
  151,  152,  153,  154,  155,  156,  162,  163,  164,  165,  166,  184,  185,  186,  187,  188
  189,  190,  191,  192,  193,  194,  195,  196,  210,  211,  212,  213,  214,  215,  216,  217
  218,  219,  220,  221,  222,  236,  237,  238,  239,  240,  241,  242,  243,  244,  245,  246
  247,  248,  307,  308,  309,  310,  311,  312,  313,  314,  315,  316,  317,  318,  319,  320
  321,  322,  323,  365,  366,  367,  368,  369,  370,  371,  372,  373,  374,  375,  376,  377
  378,  396,  397,  398,  399,  400,  401,  402,  403,  404,  405,  406,  407,  408,  422,  423
  424,  425,  426,  427,  428,  429,  430,  431,  432,  433,  434,  435,  436,  437,  438,  439
  440,  441,  442,  443,  461,  462,  463,  464,  465,  466,  467,  484,  485,  486,  487,  488
  489,  490,  491,  492,  493,  494,  495,  496,  497,  498,  499,  500,  501,  502,  503,  504
  505,  506,  507,  594,  595,  596,  597,  598,  599,  600,  601,  602,  603,  604,  605,  606
  607,  608,  609,  610,  611,  612,  613,  614,  615,  616,  617,  618,  619,  620,  647,  648
  649,  650,  651,  652,  653,  654,  655,  688,  689,  690,  691,  692,  693,  694,  695,  696
  697,  698,  699,  700,  701,  702,  703,  704,  705,  706,  707,  708,  720,  721,  722,  723
  724,  725,  726,  727,  728,  729,  730,  731,  732,  733,  734,  735,  736,  737,  738,  739
  740,  741,  785,  786,  787,  788,  789,  790,  791,  792,  793,  794,  795,  796,  797,  798
  799,  800,  801,  802,  803,  814,  815,  816,  817,  818,  850,  851,  852,  853,  854,  855
** ... 94 like lines cut
*Elset, elset=_PickedSet46, internal, instance=Part-1-1
     1,    10,    19,    28,    81,    90,    99,   108,   117,   126,   135,   144,   153,   162,   171,   180
   189,   198,   207,   216,   225,   234,   243,   252,   261,   270,   279,   288,   297,   306,   315,   324
   333,   342,   351,   360,   369,   378,   387,   396,   433,   434,   435,   436,   477,   486,   495,   504
   513,   522,   531,   540,   549,   558,   567,   576,   585,   594,   603,   612,   621,   630,   639,   648
   657,   666,   675,   684,   693,   702,   711,   720,   729,   738,   747,   756,   765,   774,   783,   792
   802,   819,   828,   837,   846,   855,   901,   902,   903,   904,   905,   906,   907,   908,   909,   982
   983,   984,   985,   986,   987,   988,   989,   990,   991,   992,   993,   994,  1099,  1100,  1101,  1102
  1103,  1104,  1105,  1106,  1107,  1108,  1109,  1110,  1111,  1216,  1217,  1218,  1219,  1220,  1221,  1222
  1223,  1224,  1225,  1226,  1227,  1228,  1333,  1334,  1335,  1336,  1337,  1338,  1339,  1340,  1341,  1342
  1343,  1344,  1345,  1450,  1451,  1452,  1453,  1454,  1455,  1456,  1457,  1458,  1459,  1460,  1461,  1462
  1567,  1568,  1569,  1570,  1571,  1572,  1573,  1574,  1575,  1576,  1577,  1578,  1579,  1684,  1685,  1686
  1687,  1688,  1689,  1690,  1691,  1692,  1693,  1694,  1695,  1696,  1801,  1802,  1803,  1804,  1805,  1806
  1807,  1808,  1809,  1810,  1811,  1812,  1813,  1918,  1919,  1920,  1921,  1922,  1923,  1924,  1925,  1926
  1927,  1928,  1929,  1930,  2620,  2621,  2622,  2623,  2624,  2625,  2626,  2627,  2628,  2629,  2630,  2631
  2632,  2633,  2634,  2635,  2636,  2637,  2638,  2639,  2640,  2641,  2642,  2643,  2644,  2645,  2646,  2647
  2648,  2649,  2650,  2651,  2652,  2653,  2654,  2655,  2656,  2657,  2658,  2659,  2660,  2661,  2662,  2663
  2664,  2665,  2666,  2667,  2668,  2669,  2670,  2671,  2672,  2673,  2674,  2675,  2676,  2677,  2678,  2679
  2680,  2681,  2682,  2683,  2684,  3205,  3223,  3241,  3259,  3277,  3295,  3313,  3331,  3349,  3367,  3385
  3403,  3421,  3439,  3457,  3475,  3493,  3511,  3529,  3547,  3565,  3583,  3601,  3619,  3637,  3655,  3673
  3691,  3709,  3727,  3745,  3763,  3781,  3799,  3817,  3835,  3853,  3871,  3889,  3907,  3925,  3943,  3961
** ... 86 like lines cut
*Nset, nset=_PickedSet47, internal, instance=Part-1-1
   37,   38,   39,   40,  742,  743,  744,  745,  746,  747,  748,  749,  750,  751,  752,  753
  754,  755,  756,  757,  758,  759,  760,  761,  762,  763,  764,  765,  766,  767,  768,  769
  770,  771,  772,  773,  774,  775,  776,  777,  778,  779,  780,  781,  782,  783,  784,  785
  786,  787,  788,  789,  790,  791,  792,  793, 5449, 5450, 5451, 5452, 5453, 5454, 5455, 5456
 5457, 5458, 5459, 5460, 5461, 5462, 5463, 5464, 5465, 5466, 5467, 5468, 5469, 5470, 5471, 5472
 5473, 5474, 5475, 5476, 5477, 5478, 5479, 5480, 5481, 5482, 5483, 5484, 5485, 5486, 5487, 5488
 5489, 5490, 5491, 5492, 5493, 5494, 5495, 5496, 5497, 5498, 5499, 5500, 5501, 5502, 5503, 5504
 5505, 5506, 5507, 5508, 5509, 5510, 5511, 5512, 5513, 5514, 5515, 5516, 5517, 5518, 5519, 5520
 5521, 5522, 5523, 5524, 5525, 5526, 5527, 5528, 5529, 5530, 5531, 5532, 5533, 5534, 5535, 5536
 5537, 5538, 5539, 5540, 5541, 5542, 5543, 5544, 5545, 5546, 5547, 5548, 5549, 5550, 5551, 5552
 5553, 5554, 5555, 5556, 5557, 5558, 5559, 5560, 5561, 5562, 5563, 5564, 5565, 5566, 5567, 5568
 5569, 5570, 5571, 5572, 5573, 5574, 5575, 5576, 5577, 5578, 5579, 5580, 5581, 5582, 5583, 5584
 5585, 5586, 5587, 5588, 5589, 5590, 5591, 5592, 5593, 5594, 5595, 5596, 5597, 5598, 5599, 5600
 5601,
*Elset, elset=_PickedSet47, internal, instance=Part-1-1, generate
 11908,  12087,      1
*Nset, nset=_PickedSet48, internal
 1,
*Elset, elset=__PickedSurf43_S2, internal, instance=Part-1-1, generate
 16768,  16947,      1
*Surface, type=ELEMENT, name=_PickedSurf43, internal
__PickedSurf43_S2, S2
** Constraint: Constraint-1
*Coupling, constraint name=Constraint-1, ref node=_PickedSet44, surface=_PickedSurf43
*Kinematic
1, 1
2, 2
3, 3
4, 4
5, 5
6, 6
*End Assembly
*Amplitude, name=Amp-1, definition=SMOOTH STEP
             0.,              0.,              1.,              1.
** 
** MATERIALS
** 
*Material, name=Q460_explicit
*Density
 7.8e-09,
*Depvar, delete=18
     20,
*User Material, constants=73, unsymm
222800.,       0.3,     2.347,    1.3019,    1.0505,    0.3695,        0.,        0.
        2.,      0.03,  0.333333,        0.,        0.,        0.,        0.,        0.
        4.,       0.9,        1.,        1.,      100.,        0.,        0.,        0.
       24.,        0.,  0.013949, 0.0186259, 0.0232449, 0.0293963, 0.0355276, 0.0442887
 0.0537488, 0.0620044, 0.0702041, 0.0776029, 0.0856873, 0.0944335,  0.102388,  0.109929
  0.120251,  0.129766,  0.139885,  0.150253,       0.2,       0.3,      0.43,       0.6
       1.5,   438.923,   445.682,    458.74,   479.748,   501.717,   519.518,    541.91
    560.56,   575.797,   588.169,    598.69,   608.206,   618.248,   626.348,   632.689
   640.875,   648.638,    656.89,   663.756,   696.092,   746.092,   791.592,   834.092
   1014.09,
** 
** BOUNDARY CONDITIONS
** 
** Name: BC-1 Type: Displacement/Rotation
*Boundary
_PickedSet45, 1, 1
_PickedSet45, 6, 6
** Name: BC-2 Type: Displacement/Rotation
*Boundary
_PickedSet46, 3, 3
_PickedSet46, 4, 4
** Name: BC-3 Type: Displacement/Rotation
*Boundary
_PickedSet47, 1, 1
_PickedSet47, 2, 2
_PickedSet47, 3, 3
** ----------------------------------------------------------------
** 
** STEP: Step-1
** 
*Step, name=Step-1, nlgeom=YES
*Dynamic, Explicit
, 1.
*Bulk Viscosity
0.06, 1.2
** Mass Scaling: Semi-Automatic
**               Whole Model
*Variable Mass Scaling, dt=2.5e-06, type=below min, frequency=1
** 
** BOUNDARY CONDITIONS
** 
** Name: BC-4 Type: Displacement/Rotation
*Boundary, amplitude=Amp-1
_PickedSet48, 1, 1
_PickedSet48, 2, 2, 1.5
_PickedSet48, 3, 3
** 
** OUTPUT REQUESTS
** 
*Restart, write, number interval=1, time marks=NO
** 
** FIELD OUTPUT: F-Output-1
** 
*Output, field, time interval=0.01
*Node Output
RF, U, V
*Element Output, directions=YES
LE, PE, PEEQ, S, SDV, STATUS
*Contact Output
CSTRESS, 
** 
** HISTORY OUTPUT: H-Output-1
** 
*Output, history, variable=PRESELECT, time interval=0.01
*End Step
