*Heading
** Job name: GP-1-vumat-C3D8R-with_fracture Model name: GP-1-vumat
** Generated by: Abaqus/CAE 2021.HF4
*Preprint, echo=NO, model=NO, history=NO, contact=NO
**
** PARTS
**
*Part, name=Part-1
*Node
      1,          2.5,  -6.13649702,          25.
      2,           0.,  -6.13649702,          25.
      3,           0.,         -10.,          25.
      4,          2.5,         -10.,          25.
      5,           0.,  -6.13649702,           0.
      6,           0.,         -10.,           0.
      7,          2.5,         -10.,           0.
      8,          2.5,  -6.13649702,           0.
      9,           0.,   6.13649702,           0.
     10,           0.,   6.13649702,          25.
     11,           0.,          10.,          25.
     12,           0.,          10.,           0.
     13,          2.5,   6.13649702,          25.
     14,          2.5,          10.,          25.
     15,          2.5,          10.,           0.
     16,          2.5,   6.13649702,           0.
     17,   1.08000004,           0.,           0.
     18,           0.,           0.,           0.
     19,           0.,           0.,          25.
     20,   1.08000004,           0.,          25.
** ... 27468 like lines cut
*Element, type=C3D8R
   1,   140,  1415,  9609,  1175,     1,    41,  1127,    60
   2,  1415,  1416,  9610,  9609,    41,    42,  1128,  1127
   3,  1416,  1417,  9611,  9610,    42,    43,  1129,  1128
   4,  1417,  1418,  9612,  9611,    43,    44,  1130,  1129
   5,  1418,  1419,  9613,  9612,    44,    45,  1131,  1130
   6,  1419,  1420,  9614,  9613,    45,    46,  1132,  1131
   7,  1420,   171,  1295,  9614,    46,     2,    47,  1132
   8,  1175,  9609,  9615,  1176,    60,  1127,  1133,    59
   9,  9609,  9610,  9616,  9615,  1127,  1128,  1134,  1133
  10,  9610,  9611,  9617,  9616,  1128,  1129,  1135,  1134
  11,  9611,  9612,  9618,  9617,  1129,  1130,  1136,  1135
  12,  9612,  9613,  9619,  9618,  1130,  1131,  1137,  1136
  13,  9613,  9614,  9620,  9619,  1131,  1132,  1138,  1137
  14,  9614,  1295,  1296,  9620,  1132,    47,    48,  1138
  15,  1176,  9615,  9621,  1177,    59,  1133,  1139,    58
  16,  9615,  9616,  9622,  9621,  1133,  1134,  1140,  1139
  17,  9616,  9617,  9623,  9622,  1134,  1135,  1141,  1140
  18,  9617,  9618,  9624,  9623,  1135,  1136,  1142,  1141
  19,  9618,  9619,  9625,  9624,  1136,  1137,  1143,  1142
  20,  9619,  9620,  9626,  9625,  1137,  1138,  1144,  1143
** ... 23168 like lines cut
*Nset, nset=_PickedSet61, internal, generate
     1,  27488,      1
*Elset, elset=_PickedSet61, internal, generate
     1,  23188,      1
** Section: Q460_explicit
*Solid Section, elset=_PickedSet61, material=Q460_explicit
,
*End Part
**  
**
** ASSEMBLY
**
*Assembly, name=Assembly
**  
*Instance, name=Part-1-1, part=Part-1
*End Instance
**  
*Node
      1,           0.,          55.,           0.
*Nset, nset=_PickedSet49, internal
 1,
*Nset, nset=_PickedSet52, internal, instance=Part-1-1
   27,   28,   37,   38,  682,  683,  684,  685,  686,  687,  688,  689,  690,  691,  692,  693
  694,  695,  696,  697,  698,  699,  700,  701,  702,  703,  704,  705,  706,  707,  708,  709
  710,  711,  937,  938,  939,  940,  941,  942,  943,  944,  945,  946,  947,  948,  949,  950
  951,  952,  953,  954,  955,  956,  957,  958,  959,  960,  961,  962,  963,  964,  965,  966
  967,  968,  969,  970,  971,  972,  973,  974,  975,  976,  977,  978,  979,  980,  981,  982
  983,  984, 7219, 7220, 7221, 7222, 7223, 7224, 7225, 7226, 7227, 7228, 7229, 7230, 7231, 7232
 7233, 7234, 7235, 7236, 7237, 7238, 7239, 7240, 7241, 7242, 7243, 7244, 7245, 7246, 7247, 7248
 7249, 7250, 7251, 7252, 7253, 7254, 7255, 7256, 7257, 7258, 7259, 7260, 7261, 7262, 7263, 7264
 7265, 7266, 7267, 7268, 7269, 7270, 7271, 7272, 7273, 7274, 7275, 7276, 7277, 7278, 7279, 7280
 7281, 7282, 7283, 7284, 7285, 7286, 7287, 7288, 7289, 7290, 7291, 7292, 7293, 7294, 7295, 7296
 7297, 7298, 7299, 7300, 7301, 7302, 7303, 7304, 7305, 7306, 7307, 7308, 7309, 7310, 7311, 7312
 7313, 7314, 7315, 7316, 7317, 7318, 7319, 7320, 7321, 7322, 7323, 7324, 7325, 7326, 7327, 7328
 7329, 7330, 7331, 7332, 7333, 7334, 7335, 7336, 7337, 7338, 7339, 7340, 7341, 7342, 7343, 7344
 7345, 7346, 7347, 7348, 7349, 7350, 7351, 7352, 7353, 7354, 7355, 7356, 7357, 7358, 7359, 7360
 7361, 7362, 7363, 7364, 7365, 7366, 7367, 7368, 7369, 7370, 7371, 7372, 7373, 7374, 7375, 7376
 7377, 7378, 7379, 7380, 7381, 7382, 7383, 7384, 7385, 7386, 7387, 7388, 7389, 7390, 7391, 7392
 7393, 7394, 7395, 7396, 7397, 7398, 7399, 7400, 7401, 7402, 7403, 7404, 7405, 7406, 7407, 7408
 7409, 7410, 7411, 7412, 7413, 7414, 7415, 7416, 7417, 7418, 7419, 7420, 7421, 7422, 7423, 7424
 7425, 7426, 7427, 7428, 7429, 7430, 7431, 7432, 7433, 7434, 7435, 7436, 7437, 7438, 7439, 7440
 7441, 7442, 7443, 7444, 7445, 7446, 7447, 7448, 7449, 7450, 7451, 7452, 7453, 7454, 7455, 7456
 7457, 7458, 7459, 7460, 7461, 7462, 7463, 7464, 7465, 7466, 7467, 7468, 7469, 7470, 7471, 7472
 7473, 7474, 7475, 7476, 7477, 7478, 7479, 7480, 7481, 7482, 7483, 7484, 7485, 7486, 7487, 7488
*Elset, elset=_PickedSet52, internal, instance=Part-1-1, generate
 16710,  17019,      1
*Nset, nset=_PickedSet53, internal
 1,
*Nset, nset=_PickedSet54, internal, instance=Part-1-1
    2,    3,    5,    6,    9,   10,   11,   12,   18,   19,   23,   24,   29,   30,   31,   32
   35,   36,   47,   48,   49,   50,   67,   68,   69,   70,  141,  142,  143,  144,  145,  146
  147,  148,  149,  150,  151,  152,  153,  154,  155,  156,  157,  158,  159,  160,  161,  162
  163,  164,  165,  166,  167,  168,  169,  170,  171,  172,  173,  174,  175,  176,  177,  178
  179,  180,  181,  182,  183,  184,  185,  186,  187,  188,  189,  190,  191,  192,  193,  194
  195,  196,  197,  198,  199,  200,  201,  202,  203,  204,  205,  206,  207,  208,  209,  210
  211,  212,  213,  214,  215,  216,  217,  218,  219,  220,  221,  222,  223,  224,  225,  226
  227,  228,  229,  230,  231,  232,  233,  234,  235,  236,  237,  238,  239,  240,  241,  242
  243,  244,  245,  246,  247,  248,  249,  250,  251,  252,  253,  254,  255,  256,  257,  258
  259,  260,  261,  262,  263,  264,  265,  266,  267,  268,  420,  421,  422,  423,  424,  425
  426,  427,  428,  429,  430,  431,  432,  433,  434,  435,  436,  437,  438,  439,  440,  441
  442,  443,  444,  445,  446,  447,  448,  449,  450,  451,  452,  453,  454,  455,  456,  457
  458,  459,  460,  461,  462,  463,  464,  465,  466,  467,  468,  469,  470,  471,  472,  473
  481,  482,  483,  484,  485,  486,  487,  488,  489,  490,  491,  492,  493,  494,  495,  496
  497,  498,  499,  500,  501,  502,  503,  504,  565,  566,  567,  568,  569,  570,  571,  572
  573,  574,  575,  576,  577,  578,  579,  580,  581,  582,  583,  584,  585,  586,  587,  588
  589,  590,  591,  592,  593,  594,  595,  596,  597,  598,  599,  600,  601,  602,  603,  604
  605,  606,  607,  608,  609,  610,  611,  612,  721,  722,  723,  724,  725,  726,  727,  728
  729,  730,  731,  732,  733,  734,  735,  736,  737,  738,  739,  740,  741,  742,  743,  744
  745,  746,  747,  748,  749,  750,  751,  752,  753,  754,  755,  756,  757,  758,  759,  760
** ... 182 like lines cut
*Elset, elset=_PickedSet54, internal, instance=Part-1-1
     7,    14,    21,    28,    35,    42,    49,    56,    63,    70,    77,    84,    91,    98,   105,   112
   119,   126,   133,   140,   147,   154,   161,   168,   175,   182,   189,   196,   203,   210,   217,   224
   231,   238,   245,   252,   259,   266,   273,   280,   287,   294,   301,   308,   315,   322,   329,   336
   343,   350,   357,   364,   371,   378,   385,   392,   399,   406,   413,   420,   427,   434,   441,   448
   455,   462,   469,   476,   483,   490,   497,   504,   511,   518,   525,   532,   539,   546,   553,   560
   567,   574,   581,   588,   595,   602,   609,   616,   623,   630,   637,   644,   651,   658,   665,   672
   679,   686,   693,   700,   707,   714,   721,   728,   735,   742,   749,   756,   763,   770,   777,   784
   791,   798,   805,   812,   819,   826,   833,   840,   847,   854,   861,   868,   875,   882,   889,   896
   903,   910,   917,   924,   931,   938,   945,   952,   959,   966,   973,   980,   987,   994,  1001,  1008
  1015,  1022,  1029,  1036,  1043,  1050,  1057,  1064,  1071,  1078,  1085,  1086,  1087,  1088,  1089,  1090
  1091,  1092,  1093,  1094,  1095,  1096,  1097,  1098,  1099,  1100,  1101,  1102,  1103,  1104,  1105,  1106
  1107,  1108,  1109,  1110,  1111,  1112,  1113,  1114,  1115,  1116,  1117,  1118,  1119,  1120,  1121,  1122
  1123,  1124,  1125,  1126,  1127,  1128,  1129,  1130,  1131,  1132,  1133,  1134,  1135,  1136,  1137,  1138
  1139,  1140,  1141,  1142,  1143,  1144,  1145,  1146,  1147,  1148,  1149,  1150,  1151,  1152,  1153,  1154
  1155,  1156,  1157,  1158,  1159,  1160,  1161,  1162,  1163,  1164,  1165,  1166,  1167,  1168,  1169,  1170
  1171,  1172,  1173,  1174,  1175,  1176,  1177,  1178,  1179,  1180,  1181,  1182,  1183,  1184,  1185,  1186
  1187,  1188,  1189,  1190,  1191,  1192,  1193,  1194,  1195,  1196,  1197,  1198,  1199,  1200,  1201,  1202
  1203,  1204,  1205,  1206,  1207,  1208,  1209,  1210,  1211,  1212,  1213,  1214,  1215,  1216,  1217,  1218
  1219,  1220,  1221,  1222,  1223,  1224,  1225,  1226,  1227,  1228,  1229,  1230,  1231,  1232,  1233,  1234
  1235,  1236,  1237,  1238,  1239,  1240,  2880,  2886,  2892,  2898,  2904,  2910,  2916,  2922,  2928,  2934
** ... 174 like lines cut
*Nset, nset=_PickedSet55, internal, instance=Part-1-1
    5,    6,    7,    8,    9,   12,   15,   16,   17,   18,   21,   24,   26,   28,   30,   32
   34,   35,   37,   40,   61,   62,   63,   64,   65,   66,   67,   68,   69,   70,   71,   72
   73,   74,   75,   76,   77,   78,   79,   80,  265,  266,  267,  268,  333,  334,  335,  336
  337,  338,  339,  340,  341,  342,  343,  344,  345,  346,  347,  348,  391,  392,  393,  394
  395,  396,  397,  398,  399,  400,  401,  402,  403,  404,  405,  406,  407,  408,  409,  410
  411,  412,  413,  414,  415,  416,  417,  418,  419,  450,  451,  452,  453,  454,  455,  456
  457,  458,  459,  460,  461,  462,  463,  464,  465,  466,  467,  468,  469,  470,  471,  472
  473,  527,  528,  529,  530,  604,  605,  606,  607,  608,  609,  610,  611,  612,  652,  653
  654,  655,  656,  657,  658,  659,  660,  661,  662,  663,  664,  665,  666,  712,  713,  714
  715,  716,  717,  718,  719,  720,  760,  761,  762,  763,  764,  765,  766,  767,  768,  769
  770,  771,  772,  773,  774,  820,  821,  822,  823,  824,  825,  826,  827,  828,  868,  869
  870,  871,  872,  873,  874,  875,  876,  877,  878,  879,  880,  881,  882,  889,  890,  891
  892,  893,  894,  895,  896,  897,  937,  938,  939,  940,  941,  942,  943,  944,  945,  991
  992,  993,  994,  995,  996,  997,  998,  999, 1000, 1057, 1058, 1059, 1060, 1061, 1062, 1063
 1064, 1065, 1066, 1067, 1068, 1069, 1070, 1071, 1072, 1073, 1074, 1075, 1076, 1077, 1078, 1079
 1080, 1081, 1082, 1083, 1084, 1085, 1086, 1087, 1088, 1089, 1090, 1091, 1092, 1093, 1094, 1095
 1096, 1097, 1098, 1099, 1100, 1101, 1102, 1151, 1152, 1153, 1154, 1155, 1156, 1157, 1158, 1159
 1160, 1161, 1162, 1163, 1164, 1165, 1166, 1167, 1168, 1169, 1170, 1171, 1172, 1173, 1174, 2015
 2016, 2017, 2018, 2019, 2020, 2021, 2022, 2023, 2024, 2025, 2026, 2027, 2028, 2029, 2030, 2031
 2032, 2033, 2034, 2035, 2036, 2037, 2038, 2633, 2634, 2635, 2636, 2637, 2638, 2639, 2640, 2641
** ... 34 like lines cut
*Elset, elset=_PickedSet55, internal, instance=Part-1-1
  1051,  1052,  1053,  1054,  1055,  1056,  1057,  1058,  1059,  1060,  1061,  1062,  1063,  1064,  1065,  1066
  1067,  1068,  1069,  1070,  1071,  1072,  1073,  1074,  1075,  1076,  1077,  1078,  1079,  1080,  1081,  1082
  1083,  1084,  1085,  1086,  1117,  1148,  1179,  1210,  1241,  1272,  1303,  1334,  1365,  1396,  1427,  1458
  1489,  1520,  1551,  1582,  1613,  1644,  1675,  1706,  1737,  1768,  1799,  1830,  1861,  1892,  1923,  1954
  1985,  2016,  2047,  2078,  2109,  2140,  2186,  2202,  2218,  2234,  2250,  2266,  2282,  2298,  2314,  2330
  2346,  2362,  2378,  2394,  2410,  2426,  2442,  2458,  2474,  2490,  2506,  2522,  2538,  2554,  2570,  2586
  2602,  2618,  2634,  2650,  2666,  2682,  2698,  2714,  2730,  2746,  2762,  2778,  2794,  2810,  2826,  2842
  2858,  2874,  2875,  2876,  2877,  2878,  2879,  2880,  2971,  2972,  2973,  2974,  2975,  2976,  3067,  3068
  3069,  3070,  3071,  3072,  3163,  3164,  3165,  3166,  3167,  3168,  3259,  3260,  3261,  3262,  3263,  3264
  3355,  3356,  3357,  3358,  3359,  3360,  3451,  3452,  3453,  3454,  3455,  3456,  3547,  3548,  3549,  3550
  3551,  3552,  3643,  3644,  3645,  3646,  3647,  3648,  3739,  3740,  3741,  3742,  3743,  3744,  3835,  3836
  3837,  3838,  3839,  3840,  3931,  3932,  3933,  3934,  3935,  3936,  4027,  4028,  4029,  4030,  4031,  4032
  4123,  4124,  4125,  4126,  4127,  4128,  4219,  4220,  4221,  4222,  4223,  4224,  4315,  4316,  4317,  4318
  4319,  4320,  4411,  4412,  4413,  4414,  4415,  4416,  4507,  4508,  4509,  4510,  4511,  4512,  4603,  4604
  4605,  4606,  4607,  4608,  4699,  4700,  4701,  4702,  4703,  4704,  4795,  4796,  4797,  4798,  4799,  4800
  4891,  4892,  4893,  4894,  4895,  4896,  7627,  7628,  7659,  7660,  7661,  7707,  7708,  7709,  7710,  7711
  7712,  7713,  7714,  7715,  7716,  7717,  7718,  7719,  7720,  7721,  7722,  7723,  7724,  8340,  8371,  8402
  8433,  8464,  8495,  8526,  8557,  8588,  8619,  8650,  8681,  8712,  8743,  8774,  8805,  8836,  8867,  8898
  8929,  8960,  8991,  9022,  9053,  9084,  9115,  9146,  9177,  9208,  9239,  9270,  9301,  9332,  9363,  9394
  9425,  9456,  9487,  9518,  9549,  9580,  9611,  9642,  9673,  9704,  9735,  9766,  9797,  9828,  9859,  9890
** ... 27 like lines cut
*Elset, elset=__PickedSurf48_S1, internal, instance=Part-1-1, generate
 14540,  14849,      1
*Surface, type=ELEMENT, name=_PickedSurf48, internal
__PickedSurf48_S1, S1
** Constraint: Constraint-1
*Coupling, constraint name=Constraint-1, ref node=_PickedSet49, surface=_PickedSurf48
*Kinematic
1, 1
2, 2
3, 3
4, 4
5, 5
6, 6
*End Assembly
*Amplitude, name=Amp-1, definition=SMOOTH STEP
             0.,              0.,              1.,              1.
** 
** MATERIALS
** 
*Material, name=Q460_explicit
*Density
 7.8e-09,
*Depvar, delete=18
     20,
*User Material, constants=73, unsymm
222800.,       0.3,     2.347,    1.3019,    1.0505,    0.3695,        0.,        0.
        2.,      0.03,  0.333333,        0.,        0.,        0.,        0.,        0.
        4.,       0.9,        1.,        1.,      100.,        0.,        0.,        0.
       24.,        0.,  0.013949, 0.0186259, 0.0232449, 0.0293963, 0.0355276, 0.0442887
 0.0537488, 0.0620044, 0.0702041, 0.0776029, 0.0856873, 0.0944335,  0.102388,  0.109929
  0.120251,  0.129766,  0.139885,  0.150253,       0.2,       0.3,      0.43,       0.6
       1.5,   438.923,   445.682,    458.74,   479.748,   501.717,   519.518,    541.91
    560.56,   575.797,   588.169,    598.69,   608.206,   618.248,   626.348,   632.689
   640.875,   648.638,    656.89,   663.756,   696.092,   746.092,   791.592,   834.092
   1014.09,
** 
** BOUNDARY CONDITIONS
** 
** Name: BC-1 Type: Displacement/Rotation
*Boundary
_PickedSet54, 1, 1
_PickedSet54, 6, 6
** Name: BC-2 Type: Displacement/Rotation
*Boundary
_PickedSet55, 3, 3
_PickedSet55, 4, 4
** Name: BC-3 Type: Displacement/Rotation
*Boundary
_PickedSet52, 1, 1
_PickedSet52, 2, 2
_PickedSet52, 3, 3
** ----------------------------------------------------------------
** 
** STEP: Step-1
** 
*Step, name=Step-1, nlgeom=YES
*Dynamic, Explicit
, 1.
*Bulk Viscosity
0.06, 1.2
** Mass Scaling: Semi-Automatic
**               Whole Model
*Variable Mass Scaling, dt=2.5e-06, type=below min, frequency=1
** 
** BOUNDARY CONDITIONS
** 
** Name: BC-4 Type: Displacement/Rotation
*Boundary, amplitude=Amp-1
_PickedSet53, 1, 1
_PickedSet53, 2, 2, 1.4
_PickedSet53, 3, 3
** 
** OUTPUT REQUESTS
** 
*Restart, write, number interval=1, time marks=NO
** 
** FIELD OUTPUT: F-Output-1
** 
*Output, field, time interval=0.01
*Node Output
RF, U, V
*Element Output, directions=YES
LE, PE, PEEQ, S, SDV, STATUS
*Contact Output
CSTRESS, 
** 
** HISTORY OUTPUT: H-Output-1
** 
*Output, history, variable=PRESELECT, time interval=0.01
*End Step
