*Heading
** Job name: GP-4-vumat-C3D8R-with_fracture Model name: GP-4-vumat
** Generated by: Abaqus/CAE 2021.HF4
*Preprint, echo=NO, model=NO, history=NO, contact=NO
**
** PARTS
**
*Part, name=Part-1
*Node
      1,          2.5,   3.56271148,          25.
      2,          2.5,   3.56271148,           0.
      3,          2.5,          10.,           0.
      4,          2.5,          10.,          25.
      5,           0.,   3.56271148,           0.
      6,           0.,          10.,           0.
      7,           0.,          10.,          25.
      8,           0.,   3.56271148,          25.
      9,          2.5,  -3.59839559,          25.
     10,          2.5,  -3.59839559,           0.
     11,          2.5,  -2.59839559,           0.
     12,          2.5,  -2.59839559,          25.
     13,           0.,  -3.59839559,           0.
     14,           0.,  -3.59839559,          25.
     15,   1.02994883, -0.017842032,          25.
     16,           0., -0.017842032,          25.
     17,   1.02994883, -0.017842032,           0.
     18,           0., -0.017842032,           0.
     19,           0.,          40.,          25.
     20,           0.,          40.,           0.
** ... 34507 like lines cut
*Element, type=C3D8R
   1,   266,  1967, 12282,  1917,     1,    41,  1427,   148
   2,  1967,  1968, 12283, 12282,    41,    42,  1428,  1427
   3,  1968,  1969, 12284, 12283,    42,    43,  1429,  1428
   4,  1969,  1970, 12285, 12284,    43,    44,  1430,  1429
   5,  1970,  1971, 12286, 12285,    44,    45,  1431,  1430
   6,  1971,  1972, 12287, 12286,    45,    46,  1432,  1431
   7,  1972,  1973, 12288, 12287,    46,    47,  1433,  1432
   8,  1973,  1974, 12289, 12288,    47,    48,  1434,  1433
   9,  1974,  1975, 12290, 12289,    48,    49,  1435,  1434
  10,  1975,  1976, 12291, 12290,    49,    50,  1436,  1435
  11,  1976,  1977, 12292, 12291,    50,    51,  1437,  1436
  12,  1977,  1978, 12293, 12292,    51,    52,  1438,  1437
  13,  1978,  1979, 12294, 12293,    52,    53,  1439,  1438
  14,  1979,  1980, 12295, 12294,    53,    54,  1440,  1439
  15,  1980,  1981, 12296, 12295,    54,    55,  1441,  1440
  16,  1981,  1982, 12297, 12296,    55,    56,  1442,  1441
  17,  1982,  1983, 12298, 12297,    56,    57,  1443,  1442
  18,  1983,  1984, 12299, 12298,    57,    58,  1444,  1443
  19,  1984,  1985, 12300, 12299,    58,    59,  1445,  1444
  20,  1985,  1986, 12301, 12300,    59,    60,  1446,  1445
** ... 29280 like lines cut
*Nset, nset=_PickedSet35, internal, generate
     1,  34527,      1
*Elset, elset=_PickedSet35, internal, generate
     1,  29300,      1
** Section: Q460_explicit
*Solid Section, elset=_PickedSet35, material=Q460_explicit
,
*End Part
**  
**
** ASSEMBLY
**
*Assembly, name=Assembly
**  
*Instance, name=Part-1-1, part=Part-1
*End Instance
**  
*Node
      1,           0.,         57.5,           0.
*Nset, nset=_PickedSet41, internal
 1,
*Nset, nset=_PickedSet45, internal
 1,
*Nset, nset=_PickedSet46, internal, instance=Part-1-1
     5,     6,     7,     8,    13,    14,    16,    18,    19,    20,    25,    26,    27,    30,    31,    32
    35,    36,   149,   150,   151,   152,   153,   154,   155,   156,   157,   158,   159,   160,   161,   162
   163,   164,   165,   166,   167,   168,   169,   170,   171,   172,   173,   174,   175,   176,   177,   178
   179,   180,   181,   182,   183,   184,   185,   186,   187,   188,   189,   190,   191,   192,   193,   194
   195,   196,   197,   198,   199,   200,   201,   202,   203,   204,   205,   206,   207,   208,   209,   210
   211,   212,   213,   214,   215,   216,   217,   218,   219,   220,   221,   222,   223,   224,   225,   226
   227,   228,   229,   230,   231,   232,   233,   234,   235,   236,   237,   238,   239,   240,   241,   242
   243,   244,   245,   246,   247,   248,   249,   250,   251,   252,   253,   254,   255,   256,   417,   418
   419,   420,   421,   422,   423,   424,   425,   426,   427,   428,   429,   430,   431,   432,   433,   434
   435,   436,   437,   438,   439,   440,   441,   442,   443,   444,   445,   446,   447,   448,   449,   450
   451,   452,   453,   454,   455,   456,   457,   458,   459,   460,   461,   462,   463,   464,   465,   466
   467,   468,   469,   470,   471,   472,   473,   474,   475,   476,   477,   478,   479,   480,   481,   482
   483,   484,   485,   486,   487,   488,   489,   490,   491,   548,   549,   550,   551,   552,   553,   554
   555,   556,   557,   558,   559,   560,   561,   562,   563,   564,   565,   566,   567,   568,   569,   570
   571,   572,   573,   574,   575,   576,   577,   578,   579,   580,   581,   582,   583,   584,   585,   586
   587,   588,   589,   590,   591,   592,   593,   594,   595,   596,   604,   605,   606,   607,   608,   609
   610,   611,   612,   613,   614,   615,   616,   617,   618,   619,   620,   621,   622,   623,   624,   625
   626,   627,   628,   629,   630,   631,   632,   633,   634,   635,   636,   637,   638,   639,   640,   641
   642,   643,   644,   645,   646,   647,   648,   649,   650,   651,   652,   653,   654,   655,   656,   657
   658,   659,   660,   661,   662,   663,   664,   665,   666,   667,   668,   669,   670,   815,   816,   817
** ... 239 like lines cut
*Elset, elset=_PickedSet46, internal, instance=Part-1-1
  1501,  1502,  1503,  1504,  1505,  1506,  1507,  1508,  1509,  1510,  1511,  1512,  1513,  1514,  1515,  1516
  1517,  1518,  1519,  1520,  1521,  1522,  1523,  1524,  1525,  1526,  1527,  1528,  1529,  1530,  1531,  1532
  1533,  1534,  1535,  1536,  1537,  1538,  1539,  1540,  1541,  1542,  1543,  1544,  1545,  1546,  1547,  1548
  1549,  1550,  1551,  1552,  1553,  1554,  1555,  1556,  1557,  1558,  1559,  1560,  1561,  1562,  1563,  1564
  1565,  1566,  1567,  1568,  1569,  1570,  1571,  1572,  1573,  1574,  1575,  1576,  1577,  1578,  1579,  1580
  1581,  1582,  1583,  1584,  1585,  1586,  1587,  1588,  1589,  1590,  1591,  1592,  1593,  1594,  1595,  1596
  1597,  1598,  1599,  1600,  1601,  1602,  1603,  1604,  1605,  1606,  1607,  1608,  1609,  1610,  1611,  1612
  1613,  1614,  1615,  1616,  1617,  1618,  1619,  1620,  1621,  1622,  1623,  1624,  1625,  1626,  1627,  1628
  1629,  1630,  1631,  1632,  1633,  1634,  1635,  1636,  1637,  1638,  1639,  1640,  1641,  1642,  1643,  1644
  1645,  1646,  1647,  1648,  1649,  1650,  1651,  1652,  1653,  1654,  1655,  1656,  1657,  1658,  1659,  1660
  1661,  1662,  1663,  1664,  1665,  1666,  1667,  1668,  1669,  1670,  1671,  1672,  1673,  1674,  1675,  1676
  1677,  1678,  1679,  1680,  1681,  1682,  1683,  1684,  1685,  1686,  1687,  1688,  1689,  1690,  1691,  1692
  1693,  1694,  1695,  1696,  1697,  1698,  1699,  1700,  1701,  1702,  1703,  1704,  1705,  1706,  1707,  1708
  1709,  1710,  1711,  1712,  1713,  1714,  1715,  1716,  1717,  1718,  1719,  1720,  1721,  1722,  1723,  1724
  1725,  1726,  1727,  1728,  1729,  1730,  1731,  1732,  1733,  1734,  1735,  1736,  1737,  1738,  1739,  1740
  1741,  1742,  1743,  1744,  1745,  1746,  1747,  1748,  1749,  1750,  1751,  1752,  1753,  1754,  1755,  1756
  1757,  1758,  1759,  1760,  1761,  1762,  1763,  1764,  1765,  1766,  1767,  1768,  1769,  1770,  1771,  1772
  1773,  1774,  1775,  1776,  1777,  1778,  1779,  1780,  1781,  1782,  1783,  1784,  1785,  1786,  1787,  1788
  1789,  1790,  1791,  1792,  1793,  1794,  1795,  1796,  1797,  1798,  1799,  1800,  2001,  2002,  2003,  2004
  2005,  2006,  2007,  2008,  2009,  2010,  2011,  2012,  2013,  2014,  2015,  2016,  2017,  2018,  2019,  2020
** ... 230 like lines cut
*Nset, nset=_PickedSet47, internal, instance=Part-1-1
     2,     3,     5,     6,    10,    11,    13,    17,    18,    20,    21,    23,    25,    29,    30,    31
    33,    35,    37,    40,    90,    91,    92,    93,    94,   198,   199,   200,   201,   202,   267,   268
   269,   270,   271,   272,   273,   274,   275,   276,   336,   337,   338,   339,   340,   341,   342,   343
   344,   345,   395,   396,   397,   398,   399,   400,   401,   402,   403,   404,   405,   466,   467,   468
   469,   470,   471,   472,   473,   474,   475,   476,   477,   478,   597,   598,   599,   600,   601,   602
   603,   653,   654,   655,   656,   657,   658,   659,   660,   661,   720,   721,   722,   723,   724,   725
   726,   727,   728,   743,   744,   745,   746,   747,   748,   749,   750,   751,   752,   753,   754,   755
   756,   815,   816,   817,   818,   819,   820,   821,   822,   823,   887,   888,   889,   890,   891,   948
   949,   950,   951,   952,   953,   954,  1004,  1005,  1006,  1007,  1008,  1014,  1015,  1016,  1017,  1018
  1024,  1025,  1026,  1027,  1028,  1029,  1030,  1031,  1032,  1091,  1092,  1093,  1094,  1095,  1096,  1097
  1098,  1099,  1165,  1166,  1167,  1168,  1169,  1170,  1171,  1172,  1173,  1174,  1175,  1176,  1177,  1178
  1179,  1180,  1239,  1240,  1241,  1242,  1243,  1244,  1245,  1246,  1247,  1313,  1314,  1315,  1316,  1317
  1318,  1319,  1320,  1321,  1322,  1323,  1324,  1390,  1391,  1392,  1393,  1394,  1395,  1396,  1397,  1398
  1399,  1400,  1401,  1402,  1403,  1404,  1405,  1406,  1407,  1408,  1409,  1410,  1411,  1412,  1413,  1942
  1943,  1944,  1945,  1946,  1947,  1948,  1949,  1950,  1951,  1952,  1953,  1954,  1955,  1956,  1957,  1958
  1959,  1960,  1961,  1962,  1963,  1964,  1965,  1966,  3038,  3039,  3040,  3041,  3042,  3043,  3044,  3045
  3046,  3047,  3048,  3049,  3050,  3051,  3052,  3053,  3054,  3055,  3056,  3057,  3058,  3059,  3060,  3061
  3062,  3063,  3064,  3065,  3066,  3067,  3068,  3069,  3070,  3071,  3072,  3073,  3074,  3075,  3076,  3077
  3078,  3079,  3080,  3081,  3082,  3083,  3084,  3085,  3086,  3087,  3088,  3089,  3090,  3091,  3092,  3093
  3094,  3095,  3096,  3097,  3098,  3099,  3100,  3101,  3102,  3103,  3104,  3105,  3106,  3107,  3108,  3109
** ... 23 like lines cut
*Elset, elset=_PickedSet47, internal, instance=Part-1-1
    50,   100,   150,   200,   250,   300,   350,   400,   450,   500,   550,   600,   650,   700,   750,   800
   850,   900,   950,  1000,  1050,  1100,  1150,  1200,  1250,  1300,  1350,  1400,  1450,  1500,  1550,  1600
  1650,  1700,  1750,  1800,  1900,  1925,  1950,  1951,  2025,  2050,  2075,  2100,  2125,  2150,  2175,  2200
  2225,  2250,  2275,  2300,  2325,  2350,  2375,  2400,  2425,  2450,  2475,  2500,  2525,  5251,  5252,  5253
  5254,  5255,  5256,  5257,  5258,  5259,  5260,  5261,  5526,  5527,  5528,  5529,  5530,  5531,  5532,  5701
  5702,  5703,  5704,  5705,  5706,  5707,  5876,  5877,  5878,  5879,  5880,  5881,  5882,  6051,  6052,  6053
  6054,  6055,  6056,  6057,  6226,  6227,  6228,  6229,  6230,  6231,  6232,  6401,  6402,  6403,  6404,  6405
  6406,  6407,  6576,  6577,  6578,  6579,  6580,  6581,  6582,  6751,  6752,  6753,  6754,  6755,  6756,  6757
  6926,  6927,  6928,  6929,  6930,  6931,  6932,  7101,  7102,  7103,  7104,  7105,  7106,  7107,  7276,  7277
  7278,  7279,  7280,  7281,  7282,  7500,  7550,  7600,  7650,  7700,  7750,  7800,  7850,  7900,  7950,  8000
  8050,  8100,  8150,  8200,  8250,  8300,  8350,  8400,  8450,  8500,  8550,  8600,  8650,  8700,  8750,  8800
  8850,  8900,  8950,  9000,  9050,  9100,  9150,  9200,  9250,  9300,  9350,  9400,  9450,  9500,  9550,  9600
  9650,  9700,  9750,  9800,  9850,  9900,  9950, 10000, 10050, 10100, 10150, 10200, 10250, 10300, 10350, 10400
 10450, 10500, 10550, 10600, 10650, 10700, 10750, 10800, 10850, 10900, 10950, 11000, 11050, 11100, 11150, 11200
 11250, 11300, 11350, 11400, 11450, 11500, 11550, 11600, 11650, 11700, 11750, 11800, 11850, 11900, 11950, 12000
 12050, 12100, 12150, 12200, 12250, 12300, 12350, 12400, 12450, 12500, 12550, 12600, 12650, 12700, 12750, 12800
 12850, 12900, 12950, 13000, 13050, 13100, 13150, 13200, 13250, 13300, 13350, 13400, 13450, 13843, 13844, 13845
 13846, 13847, 13848, 13849, 13850, 14243, 14244, 14245, 14246, 14247, 14248, 14249, 14250, 14643, 14644, 14645
 14646, 14647, 14648, 14649, 14650, 15043, 15044, 15045, 15046, 15047, 15048, 15049, 15050, 15443, 15444, 15445
 15446, 15447, 15448, 15449, 15450, 15843, 15844, 15845, 15846, 15847, 15848, 15849, 15850, 15900, 15950, 16000
** ... 17 like lines cut
*Nset, nset=_PickedSet48, internal, instance=Part-1-1
    33,    34,    37,    38,  1100,  1101,  1102,  1103,  1104,  1105,  1106,  1107,  1108,  1109,  1110,  1111
  1112,  1113,  1114,  1115,  1116,  1117,  1118,  1119,  1120,  1121,  1122,  1123,  1124,  1125,  1126,  1127
  1128,  1129,  1130,  1131,  1132,  1133,  1134,  1135,  1136,  1137,  1138,  1139,  1140,  1141,  1142,  1143
  1144,  1145,  1146,  1147,  1148,  1239,  1240,  1241,  1242,  1243,  1244,  1245,  1246,  1247,  1248,  1249
  1250,  1251,  1252,  1253,  1254,  1255,  1256,  1257,  1258,  1259,  1260,  1261,  1262,  1263,  1264,  1265
  1266,  1267,  1268,  1269,  1270,  1271,  1272,  1273,  1274,  1275,  1276,  1277,  1278,  1279,  1280,  1281
  1282,  1283,  1284,  1285,  1286,  1287,  1288,  1289,  1290,  1291,  1292,  1293,  1294,  1295,  1296,  1297
  1298,  1299,  1300,  1301,  1302,  1303,  1304,  1305,  9777,  9778,  9779,  9780,  9781,  9782,  9783,  9784
  9785,  9786,  9787,  9788,  9789,  9790,  9791,  9792,  9793,  9794,  9795,  9796,  9797,  9798,  9799,  9800
  9801,  9802,  9803,  9804,  9805,  9806,  9807,  9808,  9809,  9810,  9811,  9812,  9813,  9814,  9815,  9816
  9817,  9818,  9819,  9820,  9821,  9822,  9823,  9824,  9825,  9826,  9827,  9828,  9829,  9830,  9831,  9832
  9833,  9834,  9835,  9836,  9837,  9838,  9839,  9840,  9841,  9842,  9843,  9844,  9845,  9846,  9847,  9848
  9849,  9850,  9851,  9852,  9853,  9854,  9855,  9856,  9857,  9858,  9859,  9860,  9861,  9862,  9863,  9864
  9865,  9866,  9867,  9868,  9869,  9870,  9871,  9872,  9873,  9874,  9875,  9876,  9877,  9878,  9879,  9880
  9881,  9882,  9883,  9884,  9885,  9886,  9887,  9888,  9889,  9890,  9891,  9892,  9893,  9894,  9895,  9896
  9897,  9898,  9899,  9900,  9901,  9902,  9903,  9904,  9905,  9906,  9907,  9908,  9909,  9910,  9911,  9912
  9913,  9914,  9915,  9916,  9917,  9918,  9919,  9920,  9921,  9922,  9923,  9924,  9925,  9926,  9927,  9928
  9929,  9930,  9931,  9932,  9933,  9934,  9935,  9936,  9937,  9938,  9939,  9940,  9941,  9942,  9943,  9944
  9945,  9946,  9947,  9948,  9949,  9950,  9951,  9952,  9953,  9954,  9955,  9956,  9957,  9958,  9959,  9960
  9961,  9962,  9963,  9964,  9965,  9966,  9967,  9968,  9969,  9970,  9971,  9972,  9973,  9974,  9975,  9976
** ... 16 like lines cut
*Elset, elset=_PickedSet48, internal, instance=Part-1-1, generate
 23351,  23850,      1
*Elset, elset=__PickedSurf40_S2, internal, instance=Part-1-1, generate
 10451,  10950,      1
*Surface, type=ELEMENT, name=_PickedSurf40, internal
__PickedSurf40_S2, S2
** Constraint: Constraint-1
*Coupling, constraint name=Constraint-1, ref node=_PickedSet41, surface=_PickedSurf40
*Kinematic
1, 1
2, 2
3, 3
4, 4
5, 5
6, 6
*End Assembly
*Amplitude, name=Amp-1, definition=SMOOTH STEP
             0.,              0.,              1.,              1.
** 
** MATERIALS
** 
*Material, name=Q460_explicit
*Density
 7.8e-09,
*Depvar, delete=18
     20,
*User Material, constants=73, unsymm
222800.,       0.3,     2.347,    1.3019,    1.0505,    0.3695,        0.,        0.
        2.,      0.03,  0.333333,        0.,        0.,        0.,        0.,        0.
        4.,       0.9,        1.,        1.,      100.,        0.,        0.,        0.
       24.,        0.,  0.013949, 0.0186259, 0.0232449, 0.0293963, 0.0355276, 0.0442887
 0.0537488, 0.0620044, 0.0702041, 0.0776029, 0.0856873, 0.0944335,  0.102388,  0.109929
  0.120251,  0.129766,  0.139885,  0.150253,       0.2,       0.3,      0.43,       0.6
       1.5,   438.923,   445.682,    458.74,   479.748,   501.717,   519.518,    541.91
    560.56,   575.797,   588.169,    598.69,   608.206,   618.248,   626.348,   632.689
   640.875,   648.638,    656.89,   663.756,   696.092,   746.092,   791.592,   834.092
   1014.09,
** 
** BOUNDARY CONDITIONS
** 
** Name: BC-1 Type: Displacement/Rotation
*Boundary
_PickedSet46, 1, 1
_PickedSet46, 6, 6
** Name: BC-2 Type: Displacement/Rotation
*Boundary
_PickedSet47, 3, 3
_PickedSet47, 4, 4
** Name: BC-3 Type: Displacement/Rotation
*Boundary
_PickedSet48, 1, 1
_PickedSet48, 2, 2
_PickedSet48, 3, 3
** ----------------------------------------------------------------
** 
** STEP: Step-1
** 
*Step, name=Step-1, nlgeom=YES
*Dynamic, Explicit
, 1.
*Bulk Viscosity
0.06, 1.2
** Mass Scaling: Semi-Automatic
**               Whole Model
*Variable Mass Scaling, dt=2.5e-06, type=below min, frequency=1
** 
** BOUNDARY CONDITIONS
** 
** Name: BC-4 Type: Displacement/Rotation
*Boundary, amplitude=Amp-1
_PickedSet45, 1, 1
_PickedSet45, 2, 2, 1.1
_PickedSet45, 3, 3
** 
** OUTPUT REQUESTS
** 
*Restart, write, number interval=1, time marks=NO
** 
** FIELD OUTPUT: F-Output-1
** 
*Output, field, time interval=0.01
*Node Output
RF, U, V
*Element Output, directions=YES
LE, PE, PEEQ, S, SDV, STATUS
*Contact Output
CSTRESS, 
** 
** HISTORY OUTPUT: H-Output-1
** 
*Output, history, variable=PRESELECT, time interval=0.01
*End Step
