*Heading
** Job name: explicit_one_element_equibiaxial_tension Model name: equibiaxial_tension
** Generated by: Abaqus/CAE 2021.HF4
*Preprint, echo=NO, model=NO, history=NO, contact=NO
**
** PARTS
**
*Part, name=Part-1
*Node
      1,           1.,           1.,           1.
      2,           1.,           0.,           1.
      3,           1.,           1.,           0.
      4,           1.,           0.,           0.
      5,           0.,           1.,           1.
      6,           0.,           0.,           1.
      7,           0.,           1.,           0.
      8,           0.,           0.,           0.
*Element, type=C3D8R
1, 5, 6, 8, 7, 1, 2, 4, 3
*Nset, nset=_PickedSet2, internal, generate
 1,  8,  1
*Elset, elset=_PickedSet2, internal
 1,
** Section: Section-1
*Solid Section, elset=_PickedSet2, controls=EC-1, material=Material-1
,
*End Part
**  
**
** ASSEMBLY
**
*Assembly, name=Assembly
**  
*Instance, name=Part-1-1, part=Part-1
*End Instance
**  
*Nset, nset=_PickedSet4, internal, instance=Part-1-1, generate
 5,  8,  1
*Nset, nset=_PickedSet5, internal, instance=Part-1-1, generate
 2,  8,  2
*Nset, nset=_PickedSet6, internal, instance=Part-1-1
 3, 4, 7, 8
*Nset, nset=_PickedSet8, internal, instance=Part-1-1, generate
 1,  4,  1
*Nset, nset=_PickedSet9, internal, instance=Part-1-1
 1, 2, 5, 6
*End Assembly
** 
** ELEMENT CONTROLS
** 
*Section Controls, name=EC-1, hourglass=ENHANCED
1., 1., 1.
*Amplitude, name=Amp-1, definition=SMOOTH STEP
             0.,              0.,              1.,              1.
** 
** MATERIALS
** 
*Material, name=Material-1
*Density
 7.8e-09,
*Depvar, delete=18
     20,
*User Material, constants=35, unsymm
206000.,      0.3,     700., 0.166667,      0.1,     385.,       0.,       0.
       2.,     0.03, 0.333333,       0.,       0.,       0.,       0.,       0.
       3.,     0.92,       1.,     1.02,       0.,       0.,       0.,       0.
       5.,       0.,      0.1,      0.4,      0.8,      3.5,     700.,     850.
     950.,    1000.,    1000.
** 
** BOUNDARY CONDITIONS
** 
** Name: BC-1 Type: Displacement/Rotation
*Boundary
_PickedSet4, 1, 1
** Name: BC-2 Type: Displacement/Rotation
*Boundary
_PickedSet5, 2, 2
** Name: BC-3 Type: Displacement/Rotation
*Boundary
_PickedSet6, 3, 3
** ----------------------------------------------------------------
** 
** STEP: Step-1
** 
*Step, name=Step-1, nlgeom=YES
*Dynamic, Explicit
, 1.
*Bulk Viscosity
0.06, 1.2
** Mass Scaling: Semi-Automatic
**               Whole Model
*Variable Mass Scaling, dt=1e-06, type=below min, frequency=1
** 
** BOUNDARY CONDITIONS
** 
** Name: BC-4 Type: Displacement/Rotation
*Boundary, amplitude=Amp-1
_PickedSet8, 1, 1, 1.2
** Name: BC-5 Type: Displacement/Rotation
*Boundary, amplitude=Amp-1
_PickedSet9, 3, 3, 1.2
** 
** OUTPUT REQUESTS
** 
*Restart, write, number interval=1, time marks=NO
** 
** FIELD OUTPUT: F-Output-1
** 
*Output, field, time interval=0.001, time marks=YES
*Node Output
CF, RF, U
*Element Output, directions=YES
LE, PE, PEEQ, PEMAG, S, SDV
*Contact Output
CDISP, CSTRESS
** 
** HISTORY OUTPUT: H-Output-1
** 
*Output, history, variable=PRESELECT, time interval=0.001
*End Step
